* NGSPICE file created from serv_0.ext - technology: gf180mcuC

* Black-box entry subcircuit for gf180mcu_fd_sc_mcu7t5v0__fill_2 abstract view
.subckt gf180mcu_fd_sc_mcu7t5v0__fill_2 VDD VSS
.ends

* Black-box entry subcircuit for gf180mcu_fd_sc_mcu7t5v0__dffq_1 abstract view
.subckt gf180mcu_fd_sc_mcu7t5v0__dffq_1 D CLK Q VDD VSS
.ends

* Black-box entry subcircuit for gf180mcu_fd_sc_mcu7t5v0__nand2_1 abstract view
.subckt gf180mcu_fd_sc_mcu7t5v0__nand2_1 A1 A2 ZN VDD VSS
.ends

* Black-box entry subcircuit for gf180mcu_fd_sc_mcu7t5v0__aoi21_2 abstract view
.subckt gf180mcu_fd_sc_mcu7t5v0__aoi21_2 A1 A2 B ZN VDD VSS
.ends

* Black-box entry subcircuit for gf180mcu_fd_sc_mcu7t5v0__fillcap_4 abstract view
.subckt gf180mcu_fd_sc_mcu7t5v0__fillcap_4 VDD VSS
.ends

* Black-box entry subcircuit for gf180mcu_fd_sc_mcu7t5v0__antenna abstract view
.subckt gf180mcu_fd_sc_mcu7t5v0__antenna I VDD VSS
.ends

* Black-box entry subcircuit for gf180mcu_fd_sc_mcu7t5v0__fill_1 abstract view
.subckt gf180mcu_fd_sc_mcu7t5v0__fill_1 VDD VSS
.ends

* Black-box entry subcircuit for gf180mcu_fd_sc_mcu7t5v0__clkbuf_1 abstract view
.subckt gf180mcu_fd_sc_mcu7t5v0__clkbuf_1 I Z VDD VSS
.ends

* Black-box entry subcircuit for gf180mcu_fd_sc_mcu7t5v0__filltie abstract view
.subckt gf180mcu_fd_sc_mcu7t5v0__filltie VDD VSS
.ends

* Black-box entry subcircuit for gf180mcu_fd_sc_mcu7t5v0__fillcap_16 abstract view
.subckt gf180mcu_fd_sc_mcu7t5v0__fillcap_16 VDD VSS
.ends

* Black-box entry subcircuit for gf180mcu_fd_sc_mcu7t5v0__sdffq_1 abstract view
.subckt gf180mcu_fd_sc_mcu7t5v0__sdffq_1 D SE SI CLK Q VDD VSS
.ends

* Black-box entry subcircuit for gf180mcu_fd_sc_mcu7t5v0__fillcap_64 abstract view
.subckt gf180mcu_fd_sc_mcu7t5v0__fillcap_64 VDD VSS
.ends

* Black-box entry subcircuit for gf180mcu_fd_sc_mcu7t5v0__fillcap_32 abstract view
.subckt gf180mcu_fd_sc_mcu7t5v0__fillcap_32 VDD VSS
.ends

* Black-box entry subcircuit for gf180mcu_fd_sc_mcu7t5v0__nor2_1 abstract view
.subckt gf180mcu_fd_sc_mcu7t5v0__nor2_1 A1 A2 ZN VDD VSS
.ends

* Black-box entry subcircuit for gf180mcu_fd_sc_mcu7t5v0__clkbuf_2 abstract view
.subckt gf180mcu_fd_sc_mcu7t5v0__clkbuf_2 I Z VDD VSS
.ends

* Black-box entry subcircuit for gf180mcu_fd_sc_mcu7t5v0__dlyb_1 abstract view
.subckt gf180mcu_fd_sc_mcu7t5v0__dlyb_1 I Z VDD VSS
.ends

* Black-box entry subcircuit for gf180mcu_fd_sc_mcu7t5v0__dlyc_1 abstract view
.subckt gf180mcu_fd_sc_mcu7t5v0__dlyc_1 I Z VDD VSS
.ends

* Black-box entry subcircuit for gf180mcu_fd_sc_mcu7t5v0__buf_1 abstract view
.subckt gf180mcu_fd_sc_mcu7t5v0__buf_1 I Z VDD VSS
.ends

* Black-box entry subcircuit for gf180mcu_fd_sc_mcu7t5v0__aoi21_1 abstract view
.subckt gf180mcu_fd_sc_mcu7t5v0__aoi21_1 A1 A2 B ZN VDD VSS
.ends

* Black-box entry subcircuit for gf180mcu_fd_sc_mcu7t5v0__mux2_2 abstract view
.subckt gf180mcu_fd_sc_mcu7t5v0__mux2_2 I0 I1 S Z VDD VSS
.ends

* Black-box entry subcircuit for gf180mcu_fd_sc_mcu7t5v0__fillcap_8 abstract view
.subckt gf180mcu_fd_sc_mcu7t5v0__fillcap_8 VDD VSS
.ends

* Black-box entry subcircuit for gf180mcu_fd_sc_mcu7t5v0__and2_1 abstract view
.subckt gf180mcu_fd_sc_mcu7t5v0__and2_1 A1 A2 Z VDD VSS
.ends

* Black-box entry subcircuit for gf180mcu_fd_sc_mcu7t5v0__nand3_1 abstract view
.subckt gf180mcu_fd_sc_mcu7t5v0__nand3_1 A1 A2 A3 ZN VDD VSS
.ends

* Black-box entry subcircuit for gf180mcu_fd_sc_mcu7t5v0__endcap abstract view
.subckt gf180mcu_fd_sc_mcu7t5v0__endcap VDD VSS
.ends

* Black-box entry subcircuit for gf180mcu_fd_sc_mcu7t5v0__nor3_1 abstract view
.subckt gf180mcu_fd_sc_mcu7t5v0__nor3_1 A1 A2 A3 ZN VDD VSS
.ends

* Black-box entry subcircuit for gf180mcu_fd_sc_mcu7t5v0__oai21_1 abstract view
.subckt gf180mcu_fd_sc_mcu7t5v0__oai21_1 A1 A2 B ZN VDD VSS
.ends

* Black-box entry subcircuit for gf180mcu_fd_sc_mcu7t5v0__oai31_1 abstract view
.subckt gf180mcu_fd_sc_mcu7t5v0__oai31_1 A1 A2 A3 B ZN VDD VSS
.ends

* Black-box entry subcircuit for gf180mcu_fd_sc_mcu7t5v0__nand2_2 abstract view
.subckt gf180mcu_fd_sc_mcu7t5v0__nand2_2 A1 A2 ZN VDD VSS
.ends

* Black-box entry subcircuit for gf180mcu_fd_sc_mcu7t5v0__clkinv_1 abstract view
.subckt gf180mcu_fd_sc_mcu7t5v0__clkinv_1 I ZN VDD VSS
.ends

* Black-box entry subcircuit for gf180mcu_fd_sc_mcu7t5v0__oai211_1 abstract view
.subckt gf180mcu_fd_sc_mcu7t5v0__oai211_1 A1 A2 B C ZN VDD VSS
.ends

* Black-box entry subcircuit for gf180mcu_fd_sc_mcu7t5v0__and4_1 abstract view
.subckt gf180mcu_fd_sc_mcu7t5v0__and4_1 A1 A2 A3 A4 Z VDD VSS
.ends

* Black-box entry subcircuit for gf180mcu_fd_sc_mcu7t5v0__nor2_2 abstract view
.subckt gf180mcu_fd_sc_mcu7t5v0__nor2_2 A1 A2 ZN VDD VSS
.ends

* Black-box entry subcircuit for gf180mcu_fd_sc_mcu7t5v0__clkbuf_3 abstract view
.subckt gf180mcu_fd_sc_mcu7t5v0__clkbuf_3 I Z VDD VSS
.ends

* Black-box entry subcircuit for gf180mcu_fd_sc_mcu7t5v0__aoi221_1 abstract view
.subckt gf180mcu_fd_sc_mcu7t5v0__aoi221_1 A1 A2 B1 B2 C ZN VDD VSS
.ends

* Black-box entry subcircuit for gf180mcu_fd_sc_mcu7t5v0__aoi211_1 abstract view
.subckt gf180mcu_fd_sc_mcu7t5v0__aoi211_1 A1 A2 B C ZN VDD VSS
.ends

* Black-box entry subcircuit for gf180mcu_fd_sc_mcu7t5v0__or4_1 abstract view
.subckt gf180mcu_fd_sc_mcu7t5v0__or4_1 A1 A2 A3 A4 Z VDD VSS
.ends

* Black-box entry subcircuit for gf180mcu_fd_sc_mcu7t5v0__aoi22_1 abstract view
.subckt gf180mcu_fd_sc_mcu7t5v0__aoi22_1 A1 A2 B1 B2 ZN VDD VSS
.ends

* Black-box entry subcircuit for gf180mcu_fd_sc_mcu7t5v0__xnor2_1 abstract view
.subckt gf180mcu_fd_sc_mcu7t5v0__xnor2_1 A1 A2 ZN VDD VSS
.ends

* Black-box entry subcircuit for gf180mcu_fd_sc_mcu7t5v0__clkbuf_4 abstract view
.subckt gf180mcu_fd_sc_mcu7t5v0__clkbuf_4 I Z VDD VSS
.ends

* Black-box entry subcircuit for gf180mcu_fd_sc_mcu7t5v0__nand4_2 abstract view
.subckt gf180mcu_fd_sc_mcu7t5v0__nand4_2 A1 A2 A3 A4 ZN VDD VSS
.ends

* Black-box entry subcircuit for gf180mcu_fd_sc_mcu7t5v0__xor2_1 abstract view
.subckt gf180mcu_fd_sc_mcu7t5v0__xor2_1 A1 A2 Z VDD VSS
.ends

* Black-box entry subcircuit for gf180mcu_fd_sc_mcu7t5v0__and3_1 abstract view
.subckt gf180mcu_fd_sc_mcu7t5v0__and3_1 A1 A2 A3 Z VDD VSS
.ends

* Black-box entry subcircuit for gf180mcu_fd_sc_mcu7t5v0__tiel abstract view
.subckt gf180mcu_fd_sc_mcu7t5v0__tiel ZN VDD VSS
.ends

* Black-box entry subcircuit for gf180mcu_fd_sc_mcu7t5v0__oai211_4 abstract view
.subckt gf180mcu_fd_sc_mcu7t5v0__oai211_4 A1 A2 B C ZN VDD VSS
.ends

* Black-box entry subcircuit for gf180mcu_fd_sc_mcu7t5v0__nand3_2 abstract view
.subckt gf180mcu_fd_sc_mcu7t5v0__nand3_2 A1 A2 A3 ZN VDD VSS
.ends

* Black-box entry subcircuit for gf180mcu_fd_sc_mcu7t5v0__or2_1 abstract view
.subckt gf180mcu_fd_sc_mcu7t5v0__or2_1 A1 A2 Z VDD VSS
.ends

* Black-box entry subcircuit for gf180mcu_fd_sc_mcu7t5v0__buf_12 abstract view
.subckt gf180mcu_fd_sc_mcu7t5v0__buf_12 I Z VDD VSS
.ends

* Black-box entry subcircuit for gf180mcu_fd_sc_mcu7t5v0__aoi221_2 abstract view
.subckt gf180mcu_fd_sc_mcu7t5v0__aoi221_2 A1 A2 B1 B2 C ZN VDD VSS
.ends

* Black-box entry subcircuit for gf180mcu_fd_sc_mcu7t5v0__oai31_2 abstract view
.subckt gf180mcu_fd_sc_mcu7t5v0__oai31_2 A1 A2 A3 B ZN VDD VSS
.ends

* Black-box entry subcircuit for gf180mcu_fd_sc_mcu7t5v0__clkinv_2 abstract view
.subckt gf180mcu_fd_sc_mcu7t5v0__clkinv_2 I ZN VDD VSS
.ends

* Black-box entry subcircuit for gf180mcu_fd_sc_mcu7t5v0__nand4_1 abstract view
.subckt gf180mcu_fd_sc_mcu7t5v0__nand4_1 A1 A2 A3 A4 ZN VDD VSS
.ends

* Black-box entry subcircuit for gf180mcu_fd_sc_mcu7t5v0__aoi22_2 abstract view
.subckt gf180mcu_fd_sc_mcu7t5v0__aoi22_2 A1 A2 B1 B2 ZN VDD VSS
.ends

* Black-box entry subcircuit for gf180mcu_fd_sc_mcu7t5v0__buf_2 abstract view
.subckt gf180mcu_fd_sc_mcu7t5v0__buf_2 I Z VDD VSS
.ends

* Black-box entry subcircuit for gf180mcu_fd_sc_mcu7t5v0__inv_1 abstract view
.subckt gf180mcu_fd_sc_mcu7t5v0__inv_1 I ZN VDD VSS
.ends

* Black-box entry subcircuit for gf180mcu_fd_sc_mcu7t5v0__nor4_1 abstract view
.subckt gf180mcu_fd_sc_mcu7t5v0__nor4_1 A1 A2 A3 A4 ZN VDD VSS
.ends

* Black-box entry subcircuit for gf180mcu_fd_sc_mcu7t5v0__aoi211_2 abstract view
.subckt gf180mcu_fd_sc_mcu7t5v0__aoi211_2 A1 A2 B C ZN VDD VSS
.ends

* Black-box entry subcircuit for gf180mcu_fd_sc_mcu7t5v0__nand3_4 abstract view
.subckt gf180mcu_fd_sc_mcu7t5v0__nand3_4 A1 A2 A3 ZN VDD VSS
.ends

* Black-box entry subcircuit for gf180mcu_fd_sc_mcu7t5v0__aoi222_1 abstract view
.subckt gf180mcu_fd_sc_mcu7t5v0__aoi222_1 A1 A2 B1 B2 C1 C2 ZN VDD VSS
.ends

* Black-box entry subcircuit for gf180mcu_fd_sc_mcu7t5v0__oai22_1 abstract view
.subckt gf180mcu_fd_sc_mcu7t5v0__oai22_1 A1 A2 B1 B2 ZN VDD VSS
.ends

* Black-box entry subcircuit for gf180mcu_fd_sc_mcu7t5v0__dlyd_1 abstract view
.subckt gf180mcu_fd_sc_mcu7t5v0__dlyd_1 I Z VDD VSS
.ends

* Black-box entry subcircuit for gf180mcu_fd_sc_mcu7t5v0__oai222_1 abstract view
.subckt gf180mcu_fd_sc_mcu7t5v0__oai222_1 A1 A2 B1 B2 C1 C2 ZN VDD VSS
.ends

* Black-box entry subcircuit for gf180mcu_fd_sc_mcu7t5v0__aoi22_4 abstract view
.subckt gf180mcu_fd_sc_mcu7t5v0__aoi22_4 A1 A2 B1 B2 ZN VDD VSS
.ends

* Black-box entry subcircuit for gf180mcu_fd_sc_mcu7t5v0__aoi211_4 abstract view
.subckt gf180mcu_fd_sc_mcu7t5v0__aoi211_4 A1 A2 B C ZN VDD VSS
.ends

* Black-box entry subcircuit for gf180mcu_fd_sc_mcu7t5v0__oai22_4 abstract view
.subckt gf180mcu_fd_sc_mcu7t5v0__oai22_4 A1 A2 B1 B2 ZN VDD VSS
.ends

* Black-box entry subcircuit for gf180mcu_fd_sc_mcu7t5v0__nor3_4 abstract view
.subckt gf180mcu_fd_sc_mcu7t5v0__nor3_4 A1 A2 A3 ZN VDD VSS
.ends

* Black-box entry subcircuit for gf180mcu_fd_sc_mcu7t5v0__nor4_4 abstract view
.subckt gf180mcu_fd_sc_mcu7t5v0__nor4_4 A1 A2 A3 A4 ZN VDD VSS
.ends

* Black-box entry subcircuit for gf180mcu_fd_sc_mcu7t5v0__dffq_2 abstract view
.subckt gf180mcu_fd_sc_mcu7t5v0__dffq_2 D CLK Q VDD VSS
.ends

* Black-box entry subcircuit for gf180mcu_fd_sc_mcu7t5v0__dffnq_1 abstract view
.subckt gf180mcu_fd_sc_mcu7t5v0__dffnq_1 D CLKN Q VDD VSS
.ends

* Black-box entry subcircuit for gf180mcu_fd_sc_mcu7t5v0__oai21_2 abstract view
.subckt gf180mcu_fd_sc_mcu7t5v0__oai21_2 A1 A2 B ZN VDD VSS
.ends

* Black-box entry subcircuit for gf180mcu_fd_sc_mcu7t5v0__nor3_2 abstract view
.subckt gf180mcu_fd_sc_mcu7t5v0__nor3_2 A1 A2 A3 ZN VDD VSS
.ends

* Black-box entry subcircuit for gf180mcu_fd_sc_mcu7t5v0__oai221_1 abstract view
.subckt gf180mcu_fd_sc_mcu7t5v0__oai221_1 A1 A2 B1 B2 C ZN VDD VSS
.ends

* Black-box entry subcircuit for gf180mcu_fd_sc_mcu7t5v0__or3_1 abstract view
.subckt gf180mcu_fd_sc_mcu7t5v0__or3_1 A1 A2 A3 Z VDD VSS
.ends

* Black-box entry subcircuit for gf180mcu_fd_sc_mcu7t5v0__aoi21_4 abstract view
.subckt gf180mcu_fd_sc_mcu7t5v0__aoi21_4 A1 A2 B ZN VDD VSS
.ends

* Black-box entry subcircuit for gf180mcu_fd_ip_sram__sram256x8m8wm1 abstract view
.subckt gf180mcu_fd_ip_sram__sram256x8m8wm1 A[0] A[1] A[2] A[3] A[4] A[5] A[6] A[7]
+ CEN CLK D[0] D[1] D[2] D[3] D[4] D[5] D[6] D[7] GWEN Q[0] Q[1] Q[2] Q[3] Q[4] Q[5]
+ Q[6] Q[7] WEN[0] WEN[1] WEN[2] WEN[3] WEN[4] WEN[5] WEN[6] WEN[7] VDD VSS
.ends

* Black-box entry subcircuit for gf180mcu_fd_sc_mcu7t5v0__oai211_2 abstract view
.subckt gf180mcu_fd_sc_mcu7t5v0__oai211_2 A1 A2 B C ZN VDD VSS
.ends

* Black-box entry subcircuit for gf180mcu_fd_sc_mcu7t5v0__oai21_4 abstract view
.subckt gf180mcu_fd_sc_mcu7t5v0__oai21_4 A1 A2 B ZN VDD VSS
.ends

* Black-box entry subcircuit for gf180mcu_fd_sc_mcu7t5v0__and4_2 abstract view
.subckt gf180mcu_fd_sc_mcu7t5v0__and4_2 A1 A2 A3 A4 Z VDD VSS
.ends

* Black-box entry subcircuit for gf180mcu_fd_sc_mcu7t5v0__nor2_4 abstract view
.subckt gf180mcu_fd_sc_mcu7t5v0__nor2_4 A1 A2 ZN VDD VSS
.ends

* Black-box entry subcircuit for gf180mcu_fd_sc_mcu7t5v0__mux4_1 abstract view
.subckt gf180mcu_fd_sc_mcu7t5v0__mux4_1 I0 I1 I2 I3 S0 S1 Z VDD VSS
.ends

* Black-box entry subcircuit for gf180mcu_fd_sc_mcu7t5v0__nand4_4 abstract view
.subckt gf180mcu_fd_sc_mcu7t5v0__nand4_4 A1 A2 A3 A4 ZN VDD VSS
.ends

* Black-box entry subcircuit for gf180mcu_fd_sc_mcu7t5v0__xor3_1 abstract view
.subckt gf180mcu_fd_sc_mcu7t5v0__xor3_1 A1 A2 A3 Z VDD VSS
.ends

* Black-box entry subcircuit for gf180mcu_fd_sc_mcu7t5v0__aoi221_4 abstract view
.subckt gf180mcu_fd_sc_mcu7t5v0__aoi221_4 A1 A2 B1 B2 C ZN VDD VSS
.ends

* Black-box entry subcircuit for gf180mcu_fd_sc_mcu7t5v0__clkinv_3 abstract view
.subckt gf180mcu_fd_sc_mcu7t5v0__clkinv_3 I ZN VDD VSS
.ends

* Black-box entry subcircuit for gf180mcu_fd_sc_mcu7t5v0__nor4_2 abstract view
.subckt gf180mcu_fd_sc_mcu7t5v0__nor4_2 A1 A2 A3 A4 ZN VDD VSS
.ends

.subckt serv_0 io_in[0] io_in[1] io_in[2] io_in[3] io_in[4] io_oeb[0] io_oeb[1] io_oeb[2]
+ io_oeb[3] io_oeb[4] io_out[0] io_out[1] io_out[2] io_out[3] io_out[4] vdd vss
XFILLER_41_1216 vdd vss gf180mcu_fd_sc_mcu7t5v0__fill_2
X_3155_ _0013_ net67 u_cpu.cpu.alu.add_cy_r vdd vss gf180mcu_fd_sc_mcu7t5v0__dffq_1
XFILLER_36_940 vdd vss gf180mcu_fd_sc_mcu7t5v0__fill_2
X_3086_ _0111_ net69 u_cpu.cpu.genblk3.csr.timer_irq_r vdd vss gf180mcu_fd_sc_mcu7t5v0__dffq_1
X_2106_ u_cpu.cpu.state.init_done _0287_ _0308_ vdd vss gf180mcu_fd_sc_mcu7t5v0__nand2_1
XFILLER_36_973 vdd vss gf180mcu_fd_sc_mcu7t5v0__fill_2
X_2037_ _1045_ u_cpu.cpu.state.stage_two_req _0254_ _0255_ vdd vss gf180mcu_fd_sc_mcu7t5v0__aoi21_2
XFILLER_51_921 vdd vss gf180mcu_fd_sc_mcu7t5v0__fill_2
XFILLER_36_995 vdd vss gf180mcu_fd_sc_mcu7t5v0__fillcap_4
XANTENNA_u_scanchain_local.scan_flop\[45\]_SE net151 vdd vss gf180mcu_fd_sc_mcu7t5v0__antenna
XFILLER_74_1069 vdd vss gf180mcu_fd_sc_mcu7t5v0__fillcap_4
XFILLER_74_1047 vdd vss gf180mcu_fd_sc_mcu7t5v0__fill_1
XFILLER_39_1189 vdd vss gf180mcu_fd_sc_mcu7t5v0__fill_1
XANTENNA__1569__I u_cpu.cpu.decode.opcode\[2\] vdd vss gf180mcu_fd_sc_mcu7t5v0__antenna
XFILLER_51_976 vdd vss gf180mcu_fd_sc_mcu7t5v0__fill_1
XFILLER_10_306 vdd vss gf180mcu_fd_sc_mcu7t5v0__fill_2
X_2939_ _0985_ _0199_ vdd vss gf180mcu_fd_sc_mcu7t5v0__clkbuf_1
XFILLER_85_1110 vdd vss gf180mcu_fd_sc_mcu7t5v0__fillcap_4
XFILLER_11_1064 vdd vss gf180mcu_fd_sc_mcu7t5v0__fill_1
XFILLER_85_1165 vdd vss gf180mcu_fd_sc_mcu7t5v0__fill_2
XFILLER_2_527 vdd vss gf180mcu_fd_sc_mcu7t5v0__fillcap_4
XFILLER_85_1198 vdd vss gf180mcu_fd_sc_mcu7t5v0__fill_1
XANTENNA__2182__A2 _0358_ vdd vss gf180mcu_fd_sc_mcu7t5v0__antenna
XFILLER_46_1138 vdd vss gf180mcu_fd_sc_mcu7t5v0__fillcap_4
XFILLER_117_66 vdd vss gf180mcu_fd_sc_mcu7t5v0__fillcap_4
XFILLER_120_937 vdd vss gf180mcu_fd_sc_mcu7t5v0__fill_1
XANTENNA__3132__CLK net107 vdd vss gf180mcu_fd_sc_mcu7t5v0__antenna
XFILLER_86_862 vdd vss gf180mcu_fd_sc_mcu7t5v0__fillcap_4
XANTENNA__1693__A1 _1122_ vdd vss gf180mcu_fd_sc_mcu7t5v0__antenna
XFILLER_22_1160 vdd vss gf180mcu_fd_sc_mcu7t5v0__fill_2
XTAP_1800 vdd vss gf180mcu_fd_sc_mcu7t5v0__filltie
XFILLER_27_973 vdd vss gf180mcu_fd_sc_mcu7t5v0__fill_1
XTAP_1811 vdd vss gf180mcu_fd_sc_mcu7t5v0__filltie
XTAP_1833 vdd vss gf180mcu_fd_sc_mcu7t5v0__filltie
XTAP_1822 vdd vss gf180mcu_fd_sc_mcu7t5v0__filltie
XFILLER_18_1218 vdd vss gf180mcu_fd_sc_mcu7t5v0__fillcap_4
XTAP_1866 vdd vss gf180mcu_fd_sc_mcu7t5v0__filltie
XTAP_1844 vdd vss gf180mcu_fd_sc_mcu7t5v0__filltie
XTAP_1855 vdd vss gf180mcu_fd_sc_mcu7t5v0__filltie
XTAP_1899 vdd vss gf180mcu_fd_sc_mcu7t5v0__filltie
XTAP_1877 vdd vss gf180mcu_fd_sc_mcu7t5v0__filltie
XFILLER_92_1169 vdd vss gf180mcu_fd_sc_mcu7t5v0__fillcap_16
XTAP_1888 vdd vss gf180mcu_fd_sc_mcu7t5v0__filltie
XANTENNA__2245__I0 u_arbiter.i_wb_cpu_rdt\[11\] vdd vss gf180mcu_fd_sc_mcu7t5v0__antenna
XFILLER_9_137 vdd vss gf180mcu_fd_sc_mcu7t5v0__fillcap_4
XFILLER_6_811 vdd vss gf180mcu_fd_sc_mcu7t5v0__fill_2
XFILLER_5_354 vdd vss gf180mcu_fd_sc_mcu7t5v0__fill_1
XFILLER_108_794 vdd vss gf180mcu_fd_sc_mcu7t5v0__fill_2
Xu_scanchain_local.scan_flop\[34\] u_arbiter.i_wb_cpu_rdt\[31\] net148 u_arbiter.i_wb_cpu_dbus_dat\[28\]
+ net30 u_scanchain_local.module_data_in\[34\] vdd vss gf180mcu_fd_sc_mcu7t5v0__sdffq_1
XFILLER_64_1216 vdd vss gf180mcu_fd_sc_mcu7t5v0__fill_2
XFILLER_7_1132 vdd vss gf180mcu_fd_sc_mcu7t5v0__fillcap_4
XFILLER_67_70 vdd vss gf180mcu_fd_sc_mcu7t5v0__fill_1
XFILLER_7_1165 vdd vss gf180mcu_fd_sc_mcu7t5v0__fill_2
XANTENNA_u_scanchain_local.scan_flop\[68\]_SE net151 vdd vss gf180mcu_fd_sc_mcu7t5v0__antenna
XFILLER_97_1047 vdd vss gf180mcu_fd_sc_mcu7t5v0__fillcap_64
XFILLER_18_940 vdd vss gf180mcu_fd_sc_mcu7t5v0__fill_1
XFILLER_45_770 vdd vss gf180mcu_fd_sc_mcu7t5v0__fill_2
XFILLER_33_932 vdd vss gf180mcu_fd_sc_mcu7t5v0__fill_2
XFILLER_33_921 vdd vss gf180mcu_fd_sc_mcu7t5v0__fill_2
XFILLER_33_954 vdd vss gf180mcu_fd_sc_mcu7t5v0__fill_2
XFILLER_33_976 vdd vss gf180mcu_fd_sc_mcu7t5v0__fill_1
XFILLER_60_795 vdd vss gf180mcu_fd_sc_mcu7t5v0__fill_1
XFILLER_34_1031 vdd vss gf180mcu_fd_sc_mcu7t5v0__fill_2
XFILLER_80_2 vdd vss gf180mcu_fd_sc_mcu7t5v0__fillcap_32
XANTENNA__3005__CLK net51 vdd vss gf180mcu_fd_sc_mcu7t5v0__antenna
X_2724_ _0845_ _0124_ vdd vss gf180mcu_fd_sc_mcu7t5v0__clkbuf_1
X_2655_ u_cpu.cpu.immdec.imm19_12_20\[6\] _0568_ _0795_ vdd vss gf180mcu_fd_sc_mcu7t5v0__nor2_1
X_1606_ _1080_ _1081_ vdd vss gf180mcu_fd_sc_mcu7t5v0__clkbuf_2
XANTENNA__3155__CLK net67 vdd vss gf180mcu_fd_sc_mcu7t5v0__antenna
X_2586_ _0732_ _0731_ _0733_ vdd vss gf180mcu_fd_sc_mcu7t5v0__nand2_1
XFILLER_102_937 vdd vss gf180mcu_fd_sc_mcu7t5v0__fill_1
Xfanout116 net117 net116 vdd vss gf180mcu_fd_sc_mcu7t5v0__dlyb_1
Xfanout127 net128 net127 vdd vss gf180mcu_fd_sc_mcu7t5v0__dlyb_1
Xfanout138 net155 net138 vdd vss gf180mcu_fd_sc_mcu7t5v0__dlyc_1
Xfanout105 net108 net105 vdd vss gf180mcu_fd_sc_mcu7t5v0__dlyb_1
Xfanout149 net150 net149 vdd vss gf180mcu_fd_sc_mcu7t5v0__buf_1
XFILLER_80_1095 vdd vss gf180mcu_fd_sc_mcu7t5v0__fill_2
XFILLER_80_1062 vdd vss gf180mcu_fd_sc_mcu7t5v0__fill_2
XFILLER_68_862 vdd vss gf180mcu_fd_sc_mcu7t5v0__fill_2
X_3207_ _0211_ net52 u_cpu.rf_ram_if.rdata1\[6\] vdd vss gf180mcu_fd_sc_mcu7t5v0__dffq_1
X_3138_ _0160_ net116 u_cpu.cpu.ctrl.o_ibus_adr\[15\] vdd vss gf180mcu_fd_sc_mcu7t5v0__dffq_1
XANTENNA__1675__A1 _1111_ vdd vss gf180mcu_fd_sc_mcu7t5v0__antenna
XFILLER_68_895 vdd vss gf180mcu_fd_sc_mcu7t5v0__fill_2
XFILLER_41_1079 vdd vss gf180mcu_fd_sc_mcu7t5v0__fill_2
XFILLER_83_898 vdd vss gf180mcu_fd_sc_mcu7t5v0__fillcap_4
XTAP_1129 vdd vss gf180mcu_fd_sc_mcu7t5v0__filltie
XTAP_1118 vdd vss gf180mcu_fd_sc_mcu7t5v0__filltie
X_3069_ _0094_ net76 u_cpu.cpu.immdec.imm30_25\[0\] vdd vss gf180mcu_fd_sc_mcu7t5v0__dffq_1
XTAP_1107 vdd vss gf180mcu_fd_sc_mcu7t5v0__filltie
XFILLER_24_910 vdd vss gf180mcu_fd_sc_mcu7t5v0__fill_2
XFILLER_51_784 vdd vss gf180mcu_fd_sc_mcu7t5v0__fill_2
XANTENNA__1978__A2 _1066_ vdd vss gf180mcu_fd_sc_mcu7t5v0__antenna
XFILLER_104_1221 vdd vss gf180mcu_fd_sc_mcu7t5v0__fill_1
XFILLER_52_1153 vdd vss gf180mcu_fd_sc_mcu7t5v0__fill_1
XFILLER_3_814 vdd vss gf180mcu_fd_sc_mcu7t5v0__fill_2
XFILLER_3_836 vdd vss gf180mcu_fd_sc_mcu7t5v0__fill_1
XFILLER_3_847 vdd vss gf180mcu_fd_sc_mcu7t5v0__fill_2
XFILLER_59_873 vdd vss gf180mcu_fd_sc_mcu7t5v0__fill_2
XANTENNA__1666__A1 _1111_ vdd vss gf180mcu_fd_sc_mcu7t5v0__antenna
XFILLER_20_1108 vdd vss gf180mcu_fd_sc_mcu7t5v0__fill_1
XFILLER_37_73 vdd vss gf180mcu_fd_sc_mcu7t5v0__fillcap_32
XFILLER_2_1062 vdd vss gf180mcu_fd_sc_mcu7t5v0__fill_2
XTAP_1641 vdd vss gf180mcu_fd_sc_mcu7t5v0__filltie
XTAP_1630 vdd vss gf180mcu_fd_sc_mcu7t5v0__filltie
XFILLER_2_1095 vdd vss gf180mcu_fd_sc_mcu7t5v0__fill_2
XFILLER_15_932 vdd vss gf180mcu_fd_sc_mcu7t5v0__fill_2
XTAP_1674 vdd vss gf180mcu_fd_sc_mcu7t5v0__filltie
XTAP_1685 vdd vss gf180mcu_fd_sc_mcu7t5v0__filltie
XTAP_1663 vdd vss gf180mcu_fd_sc_mcu7t5v0__filltie
XTAP_1652 vdd vss gf180mcu_fd_sc_mcu7t5v0__filltie
XFILLER_57_1086 vdd vss gf180mcu_fd_sc_mcu7t5v0__fill_2
XANTENNA__3028__CLK net106 vdd vss gf180mcu_fd_sc_mcu7t5v0__antenna
XFILLER_15_965 vdd vss gf180mcu_fd_sc_mcu7t5v0__fill_2
XFILLER_15_976 vdd vss gf180mcu_fd_sc_mcu7t5v0__fill_1
XFILLER_15_987 vdd vss gf180mcu_fd_sc_mcu7t5v0__fill_2
XFILLER_18_1037 vdd vss gf180mcu_fd_sc_mcu7t5v0__fillcap_4
XTAP_1696 vdd vss gf180mcu_fd_sc_mcu7t5v0__filltie
XFILLER_42_795 vdd vss gf180mcu_fd_sc_mcu7t5v0__fill_1
XFILLER_10_692 vdd vss gf180mcu_fd_sc_mcu7t5v0__fill_2
XANTENNA_fanout106_I net108 vdd vss gf180mcu_fd_sc_mcu7t5v0__antenna
X_2440_ _0598_ _0599_ _0536_ _0600_ vdd vss gf180mcu_fd_sc_mcu7t5v0__aoi21_1
XFILLER_142_314 vdd vss gf180mcu_fd_sc_mcu7t5v0__fillcap_4
XFILLER_97_902 vdd vss gf180mcu_fd_sc_mcu7t5v0__fill_1
X_2371_ _0513_ _0509_ _0536_ vdd vss gf180mcu_fd_sc_mcu7t5v0__nand2_1
XFILLER_9_1216 vdd vss gf180mcu_fd_sc_mcu7t5v0__fill_2
XFILLER_64_1079 vdd vss gf180mcu_fd_sc_mcu7t5v0__fill_1
XFILLER_64_1068 vdd vss gf180mcu_fd_sc_mcu7t5v0__fill_1
XFILLER_65_898 vdd vss gf180mcu_fd_sc_mcu7t5v0__fill_2
XFILLER_127_1221 vdd vss gf180mcu_fd_sc_mcu7t5v0__fill_2
XFILLER_75_1164 vdd vss gf180mcu_fd_sc_mcu7t5v0__fill_2
XANTENNA__2082__A1 _0282_ vdd vss gf180mcu_fd_sc_mcu7t5v0__antenna
XFILLER_21_902 vdd vss gf180mcu_fd_sc_mcu7t5v0__fill_1
XFILLER_123_1118 vdd vss gf180mcu_fd_sc_mcu7t5v0__fillcap_64
XFILLER_75_1186 vdd vss gf180mcu_fd_sc_mcu7t5v0__fill_1
XFILLER_21_935 vdd vss gf180mcu_fd_sc_mcu7t5v0__fill_2
XANTENNA_fanout19_I net20 vdd vss gf180mcu_fd_sc_mcu7t5v0__antenna
XFILLER_21_979 vdd vss gf180mcu_fd_sc_mcu7t5v0__fillcap_4
XFILLER_119_834 vdd vss gf180mcu_fd_sc_mcu7t5v0__fillcap_64
XFILLER_134_815 vdd vss gf180mcu_fd_sc_mcu7t5v0__fill_1
X_2707_ u_arbiter.i_wb_cpu_dbus_adr\[6\] u_arbiter.i_wb_cpu_dbus_adr\[7\] _0831_ _0836_
+ vdd vss gf180mcu_fd_sc_mcu7t5v0__mux2_2
XANTENNA__2385__A2 _0482_ vdd vss gf180mcu_fd_sc_mcu7t5v0__antenna
XFILLER_47_1222 vdd vss gf180mcu_fd_sc_mcu7t5v0__fill_2
XANTENNA__2137__A2 _0318_ vdd vss gf180mcu_fd_sc_mcu7t5v0__antenna
XFILLER_12_1192 vdd vss gf180mcu_fd_sc_mcu7t5v0__fill_1
X_2638_ _0542_ _0778_ _0779_ vdd vss gf180mcu_fd_sc_mcu7t5v0__nand2_1
X_2569_ _0415_ _0485_ _0717_ vdd vss gf180mcu_fd_sc_mcu7t5v0__nand2_1
XFILLER_0_839 vdd vss gf180mcu_fd_sc_mcu7t5v0__fill_1
XFILLER_114_34 vdd vss gf180mcu_fd_sc_mcu7t5v0__fill_1
XFILLER_56_876 vdd vss gf180mcu_fd_sc_mcu7t5v0__fill_2
XANTENNA__2860__A3 _0928_ vdd vss gf180mcu_fd_sc_mcu7t5v0__antenna
XFILLER_90_37 vdd vss gf180mcu_fd_sc_mcu7t5v0__fillcap_64
XANTENNA__2073__A1 _1315_ vdd vss gf180mcu_fd_sc_mcu7t5v0__antenna
XANTENNA__1958__S _1057_ vdd vss gf180mcu_fd_sc_mcu7t5v0__antenna
XFILLER_24_795 vdd vss gf180mcu_fd_sc_mcu7t5v0__fill_1
XFILLER_128_108 vdd vss gf180mcu_fd_sc_mcu7t5v0__fillcap_4
XANTENNA__1820__A1 _1071_ vdd vss gf180mcu_fd_sc_mcu7t5v0__antenna
XFILLER_8_906 vdd vss gf180mcu_fd_sc_mcu7t5v0__fill_1
XFILLER_12_979 vdd vss gf180mcu_fd_sc_mcu7t5v0__fill_1
XFILLER_128_2 vdd vss gf180mcu_fd_sc_mcu7t5v0__fillcap_32
XFILLER_48_1008 vdd vss gf180mcu_fd_sc_mcu7t5v0__fill_1
XFILLER_79_902 vdd vss gf180mcu_fd_sc_mcu7t5v0__fill_1
XFILLER_140_818 vdd vss gf180mcu_fd_sc_mcu7t5v0__fillcap_64
XFILLER_61_1208 vdd vss gf180mcu_fd_sc_mcu7t5v0__fill_2
XANTENNA__2923__I1 u_cpu.cpu.genblk1.align.ibus_rdt_concat\[8\] vdd vss gf180mcu_fd_sc_mcu7t5v0__antenna
XFILLER_2_176 vdd vss gf180mcu_fd_sc_mcu7t5v0__fill_1
XANTENNA__1887__A1 _1265_ vdd vss gf180mcu_fd_sc_mcu7t5v0__antenna
XFILLER_79_979 vdd vss gf180mcu_fd_sc_mcu7t5v0__fillcap_8
XFILLER_4_1102 vdd vss gf180mcu_fd_sc_mcu7t5v0__fill_1
XFILLER_4_1113 vdd vss gf180mcu_fd_sc_mcu7t5v0__fill_2
XFILLER_111_1044 vdd vss gf180mcu_fd_sc_mcu7t5v0__fill_1
XFILLER_98_1153 vdd vss gf180mcu_fd_sc_mcu7t5v0__fillcap_64
XFILLER_47_865 vdd vss gf180mcu_fd_sc_mcu7t5v0__fill_2
XANTENNA__2687__I0 u_arbiter.i_wb_cpu_rdt\[31\] vdd vss gf180mcu_fd_sc_mcu7t5v0__antenna
XFILLER_4_1157 vdd vss gf180mcu_fd_sc_mcu7t5v0__fill_2
XFILLER_62_813 vdd vss gf180mcu_fd_sc_mcu7t5v0__fill_1
XFILLER_59_1137 vdd vss gf180mcu_fd_sc_mcu7t5v0__fill_2
XFILLER_59_1115 vdd vss gf180mcu_fd_sc_mcu7t5v0__fill_1
XTAP_1460 vdd vss gf180mcu_fd_sc_mcu7t5v0__filltie
XTAP_1482 vdd vss gf180mcu_fd_sc_mcu7t5v0__filltie
XTAP_1493 vdd vss gf180mcu_fd_sc_mcu7t5v0__filltie
XTAP_1471 vdd vss gf180mcu_fd_sc_mcu7t5v0__filltie
X_1940_ _1353_ _0021_ _1361_ vdd vss gf180mcu_fd_sc_mcu7t5v0__and2_1
XANTENNA__1667__I _1093_ vdd vss gf180mcu_fd_sc_mcu7t5v0__antenna
XFILLER_9_66 vdd vss gf180mcu_fd_sc_mcu7t5v0__fillcap_4
XANTENNA__1811__A1 _1231_ vdd vss gf180mcu_fd_sc_mcu7t5v0__antenna
X_1871_ _1293_ _1282_ _1295_ _1313_ vdd vss gf180mcu_fd_sc_mcu7t5v0__nand3_1
XFILLER_70_1072 vdd vss gf180mcu_fd_sc_mcu7t5v0__fill_1
XFILLER_30_798 vdd vss gf180mcu_fd_sc_mcu7t5v0__fill_1
XANTENNA__2699__S _0831_ vdd vss gf180mcu_fd_sc_mcu7t5v0__antenna
XANTENNA__2367__A2 _0515_ vdd vss gf180mcu_fd_sc_mcu7t5v0__antenna
XFILLER_143_634 vdd vss gf180mcu_fd_sc_mcu7t5v0__fillcap_4
XFILLER_6_460 vdd vss gf180mcu_fd_sc_mcu7t5v0__fill_1
XFILLER_7_983 vdd vss gf180mcu_fd_sc_mcu7t5v0__fill_2
XANTENNA__2119__A2 _1089_ vdd vss gf180mcu_fd_sc_mcu7t5v0__antenna
X_2423_ _0442_ _0582_ _0583_ _0584_ vdd vss gf180mcu_fd_sc_mcu7t5v0__aoi21_1
XFILLER_43_2 vdd vss gf180mcu_fd_sc_mcu7t5v0__fillcap_64
XFILLER_130_317 vdd vss gf180mcu_fd_sc_mcu7t5v0__fillcap_32
X_2354_ _1079_ u_cpu.cpu.genblk1.align.ibus_rdt_concat\[11\] _0520_ vdd vss gf180mcu_fd_sc_mcu7t5v0__and2_1
XFILLER_9_1046 vdd vss gf180mcu_fd_sc_mcu7t5v0__fill_2
XFILLER_85_905 vdd vss gf180mcu_fd_sc_mcu7t5v0__fillcap_32
XFILLER_9_1079 vdd vss gf180mcu_fd_sc_mcu7t5v0__fill_2
XFILLER_85_949 vdd vss gf180mcu_fd_sc_mcu7t5v0__fill_2
X_2285_ u_arbiter.i_wb_cpu_rdt\[1\] u_cpu.cpu.genblk1.align.ibus_rdt_concat\[1\] _1079_
+ _0454_ vdd vss gf180mcu_fd_sc_mcu7t5v0__mux2_2
XFILLER_42_1141 vdd vss gf180mcu_fd_sc_mcu7t5v0__fill_2
XFILLER_42_1185 vdd vss gf180mcu_fd_sc_mcu7t5v0__fill_2
XFILLER_12_209 vdd vss gf180mcu_fd_sc_mcu7t5v0__fill_1
XFILLER_127_1040 vdd vss gf180mcu_fd_sc_mcu7t5v0__fillcap_4
XFILLER_139_918 vdd vss gf180mcu_fd_sc_mcu7t5v0__fillcap_4
XFILLER_14_1221 vdd vss gf180mcu_fd_sc_mcu7t5v0__fill_1
XFILLER_133_144 vdd vss gf180mcu_fd_sc_mcu7t5v0__fillcap_64
XANTENNA__1869__A1 _1310_ vdd vss gf180mcu_fd_sc_mcu7t5v0__antenna
XFILLER_125_66 vdd vss gf180mcu_fd_sc_mcu7t5v0__fillcap_4
XANTENNA__2530__A2 _1265_ vdd vss gf180mcu_fd_sc_mcu7t5v0__antenna
XFILLER_88_798 vdd vss gf180mcu_fd_sc_mcu7t5v0__fillcap_64
XFILLER_29_810 vdd vss gf180mcu_fd_sc_mcu7t5v0__fill_2
XFILLER_134_1099 vdd vss gf180mcu_fd_sc_mcu7t5v0__fill_1
XANTENNA__2818__B1 _0901_ vdd vss gf180mcu_fd_sc_mcu7t5v0__antenna
XFILLER_29_898 vdd vss gf180mcu_fd_sc_mcu7t5v0__fill_2
XFILLER_44_846 vdd vss gf180mcu_fd_sc_mcu7t5v0__fill_1
XANTENNA__1688__S _1074_ vdd vss gf180mcu_fd_sc_mcu7t5v0__antenna
XPHY_510 vdd vss gf180mcu_fd_sc_mcu7t5v0__endcap
XPHY_521 vdd vss gf180mcu_fd_sc_mcu7t5v0__endcap
XFILLER_58_1181 vdd vss gf180mcu_fd_sc_mcu7t5v0__fill_2
XANTENNA__2046__A1 u_arbiter.i_wb_cpu_dbus_dat\[6\] vdd vss gf180mcu_fd_sc_mcu7t5v0__antenna
XFILLER_54_1067 vdd vss gf180mcu_fd_sc_mcu7t5v0__fill_2
XANTENNA__2597__A2 _0502_ vdd vss gf180mcu_fd_sc_mcu7t5v0__antenna
XFILLER_12_732 vdd vss gf180mcu_fd_sc_mcu7t5v0__fill_2
XFILLER_106_1146 vdd vss gf180mcu_fd_sc_mcu7t5v0__fillcap_4
XFILLER_11_253 vdd vss gf180mcu_fd_sc_mcu7t5v0__fill_1
XFILLER_8_747 vdd vss gf180mcu_fd_sc_mcu7t5v0__fill_1
XFILLER_11_286 vdd vss gf180mcu_fd_sc_mcu7t5v0__fill_1
XFILLER_8_758 vdd vss gf180mcu_fd_sc_mcu7t5v0__fill_2
XFILLER_7_279 vdd vss gf180mcu_fd_sc_mcu7t5v0__fillcap_4
XFILLER_4_931 vdd vss gf180mcu_fd_sc_mcu7t5v0__fill_2
XFILLER_65_1141 vdd vss gf180mcu_fd_sc_mcu7t5v0__fill_1
XTAP_529 vdd vss gf180mcu_fd_sc_mcu7t5v0__filltie
XFILLER_3_496 vdd vss gf180mcu_fd_sc_mcu7t5v0__fill_1
XANTENNA__3216__CLK net44 vdd vss gf180mcu_fd_sc_mcu7t5v0__antenna
XFILLER_67_905 vdd vss gf180mcu_fd_sc_mcu7t5v0__fill_1
XFILLER_65_1185 vdd vss gf180mcu_fd_sc_mcu7t5v0__fill_2
XFILLER_6_1208 vdd vss gf180mcu_fd_sc_mcu7t5v0__fill_2
X_2070_ _0246_ _0280_ _0281_ _0033_ vdd vss gf180mcu_fd_sc_mcu7t5v0__nor3_1
XFILLER_75_70 vdd vss gf180mcu_fd_sc_mcu7t5v0__fill_1
XFILLER_90_963 vdd vss gf180mcu_fd_sc_mcu7t5v0__fill_2
X_2972_ u_cpu.cpu.ctrl.i_iscomp _0413_ _1010_ vdd vss gf180mcu_fd_sc_mcu7t5v0__nand2_1
XANTENNA__2037__A1 _1045_ vdd vss gf180mcu_fd_sc_mcu7t5v0__antenna
XTAP_1290 vdd vss gf180mcu_fd_sc_mcu7t5v0__filltie
XFILLER_72_1156 vdd vss gf180mcu_fd_sc_mcu7t5v0__fill_2
XFILLER_33_1118 vdd vss gf180mcu_fd_sc_mcu7t5v0__fill_1
XANTENNA__2588__A2 _0225_ vdd vss gf180mcu_fd_sc_mcu7t5v0__antenna
X_1923_ u_cpu.rf_ram_if.wdata0_r\[6\] u_cpu.rf_ram_if.wdata1_r\[6\] _1341_ _1349_
+ vdd vss gf180mcu_fd_sc_mcu7t5v0__mux2_2
XFILLER_129_973 vdd vss gf180mcu_fd_sc_mcu7t5v0__fill_1
X_1854_ _1282_ _1295_ _1296_ vdd vss gf180mcu_fd_sc_mcu7t5v0__nand2_1
X_1785_ _1208_ _1227_ _1228_ _1229_ vdd vss gf180mcu_fd_sc_mcu7t5v0__oai21_1
XANTENNA__2760__A2 _0233_ vdd vss gf180mcu_fd_sc_mcu7t5v0__antenna
XANTENNA__2021__I _0237_ vdd vss gf180mcu_fd_sc_mcu7t5v0__antenna
X_2406_ _0254_ _0568_ vdd vss gf180mcu_fd_sc_mcu7t5v0__buf_1
XFILLER_112_862 vdd vss gf180mcu_fd_sc_mcu7t5v0__fillcap_4
XANTENNA_fanout86_I net87 vdd vss gf180mcu_fd_sc_mcu7t5v0__antenna
XFILLER_131_1206 vdd vss gf180mcu_fd_sc_mcu7t5v0__fill_1
XFILLER_131_1217 vdd vss gf180mcu_fd_sc_mcu7t5v0__fillcap_4
XFILLER_58_927 vdd vss gf180mcu_fd_sc_mcu7t5v0__fillcap_4
X_2337_ _0426_ _0433_ _0501_ _0503_ _0504_ vdd vss gf180mcu_fd_sc_mcu7t5v0__oai31_1
XFILLER_73_908 vdd vss gf180mcu_fd_sc_mcu7t5v0__fillcap_16
X_2268_ _0423_ u_cpu.cpu.genblk1.align.ibus_rdt_concat\[5\] _0437_ vdd vss gf180mcu_fd_sc_mcu7t5v0__and2_1
XANTENNA__1866__A4 _1307_ vdd vss gf180mcu_fd_sc_mcu7t5v0__antenna
X_2199_ u_arbiter.i_wb_cpu_dbus_dat\[19\] _0375_ _0382_ vdd vss gf180mcu_fd_sc_mcu7t5v0__nand2_1
XFILLER_77_1056 vdd vss gf180mcu_fd_sc_mcu7t5v0__fill_1
XANTENNA__2579__A2 _0485_ vdd vss gf180mcu_fd_sc_mcu7t5v0__antenna
XFILLER_51_1218 vdd vss gf180mcu_fd_sc_mcu7t5v0__fill_2
XFILLER_138_247 vdd vss gf180mcu_fd_sc_mcu7t5v0__fill_1
XFILLER_88_1141 vdd vss gf180mcu_fd_sc_mcu7t5v0__fill_2
XANTENNA__2200__A1 u_arbiter.i_wb_cpu_rdt\[18\] vdd vss gf180mcu_fd_sc_mcu7t5v0__antenna
XFILLER_49_1114 vdd vss gf180mcu_fd_sc_mcu7t5v0__fill_2
XFILLER_14_1095 vdd vss gf180mcu_fd_sc_mcu7t5v0__fill_2
XFILLER_49_1169 vdd vss gf180mcu_fd_sc_mcu7t5v0__fill_2
XFILLER_0_422 vdd vss gf180mcu_fd_sc_mcu7t5v0__fillcap_32
XFILLER_49_905 vdd vss gf180mcu_fd_sc_mcu7t5v0__fill_2
XANTENNA__2503__A2 _0557_ vdd vss gf180mcu_fd_sc_mcu7t5v0__antenna