* NGSPICE file created from serv_1.ext - technology: gf180mcuC

* Black-box entry subcircuit for gf180mcu_fd_sc_mcu7t5v0__fill_2 abstract view
.subckt gf180mcu_fd_sc_mcu7t5v0__fill_2 VDD VSS
.ends

* Black-box entry subcircuit for gf180mcu_fd_sc_mcu7t5v0__antenna abstract view
.subckt gf180mcu_fd_sc_mcu7t5v0__antenna I VDD VSS
.ends

* Black-box entry subcircuit for gf180mcu_fd_sc_mcu7t5v0__fill_1 abstract view
.subckt gf180mcu_fd_sc_mcu7t5v0__fill_1 VDD VSS
.ends

* Black-box entry subcircuit for gf180mcu_fd_sc_mcu7t5v0__aoi22_1 abstract view
.subckt gf180mcu_fd_sc_mcu7t5v0__aoi22_1 A1 A2 B1 B2 ZN VDD VSS
.ends

* Black-box entry subcircuit for gf180mcu_fd_sc_mcu7t5v0__dffq_1 abstract view
.subckt gf180mcu_fd_sc_mcu7t5v0__dffq_1 D CLK Q VDD VSS
.ends

* Black-box entry subcircuit for gf180mcu_fd_sc_mcu7t5v0__fillcap_4 abstract view
.subckt gf180mcu_fd_sc_mcu7t5v0__fillcap_4 VDD VSS
.ends

* Black-box entry subcircuit for gf180mcu_fd_sc_mcu7t5v0__nand2_1 abstract view
.subckt gf180mcu_fd_sc_mcu7t5v0__nand2_1 A1 A2 ZN VDD VSS
.ends

* Black-box entry subcircuit for gf180mcu_fd_sc_mcu7t5v0__nand3_1 abstract view
.subckt gf180mcu_fd_sc_mcu7t5v0__nand3_1 A1 A2 A3 ZN VDD VSS
.ends

* Black-box entry subcircuit for gf180mcu_fd_sc_mcu7t5v0__mux4_1 abstract view
.subckt gf180mcu_fd_sc_mcu7t5v0__mux4_1 I0 I1 I2 I3 S0 S1 Z VDD VSS
.ends

* Black-box entry subcircuit for gf180mcu_fd_sc_mcu7t5v0__oai21_1 abstract view
.subckt gf180mcu_fd_sc_mcu7t5v0__oai21_1 A1 A2 B ZN VDD VSS
.ends

* Black-box entry subcircuit for gf180mcu_fd_sc_mcu7t5v0__aoi211_1 abstract view
.subckt gf180mcu_fd_sc_mcu7t5v0__aoi211_1 A1 A2 B C ZN VDD VSS
.ends

* Black-box entry subcircuit for gf180mcu_fd_sc_mcu7t5v0__fillcap_8 abstract view
.subckt gf180mcu_fd_sc_mcu7t5v0__fillcap_8 VDD VSS
.ends

* Black-box entry subcircuit for gf180mcu_fd_sc_mcu7t5v0__buf_1 abstract view
.subckt gf180mcu_fd_sc_mcu7t5v0__buf_1 I Z VDD VSS
.ends

* Black-box entry subcircuit for gf180mcu_fd_sc_mcu7t5v0__filltie abstract view
.subckt gf180mcu_fd_sc_mcu7t5v0__filltie VDD VSS
.ends

* Black-box entry subcircuit for gf180mcu_fd_sc_mcu7t5v0__fillcap_16 abstract view
.subckt gf180mcu_fd_sc_mcu7t5v0__fillcap_16 VDD VSS
.ends

* Black-box entry subcircuit for gf180mcu_fd_sc_mcu7t5v0__sdffq_1 abstract view
.subckt gf180mcu_fd_sc_mcu7t5v0__sdffq_1 D SE SI CLK Q VDD VSS
.ends

* Black-box entry subcircuit for gf180mcu_fd_sc_mcu7t5v0__tiel abstract view
.subckt gf180mcu_fd_sc_mcu7t5v0__tiel ZN VDD VSS
.ends

* Black-box entry subcircuit for gf180mcu_fd_sc_mcu7t5v0__nor2_1 abstract view
.subckt gf180mcu_fd_sc_mcu7t5v0__nor2_1 A1 A2 ZN VDD VSS
.ends

* Black-box entry subcircuit for gf180mcu_fd_sc_mcu7t5v0__mux2_2 abstract view
.subckt gf180mcu_fd_sc_mcu7t5v0__mux2_2 I0 I1 S Z VDD VSS
.ends

* Black-box entry subcircuit for gf180mcu_fd_sc_mcu7t5v0__oai221_1 abstract view
.subckt gf180mcu_fd_sc_mcu7t5v0__oai221_1 A1 A2 B1 B2 C ZN VDD VSS
.ends

* Black-box entry subcircuit for gf180mcu_fd_sc_mcu7t5v0__aoi21_1 abstract view
.subckt gf180mcu_fd_sc_mcu7t5v0__aoi21_1 A1 A2 B ZN VDD VSS
.ends

* Black-box entry subcircuit for gf180mcu_fd_sc_mcu7t5v0__aoi221_1 abstract view
.subckt gf180mcu_fd_sc_mcu7t5v0__aoi221_1 A1 A2 B1 B2 C ZN VDD VSS
.ends

* Black-box entry subcircuit for gf180mcu_fd_sc_mcu7t5v0__fillcap_32 abstract view
.subckt gf180mcu_fd_sc_mcu7t5v0__fillcap_32 VDD VSS
.ends

* Black-box entry subcircuit for gf180mcu_fd_sc_mcu7t5v0__oai31_1 abstract view
.subckt gf180mcu_fd_sc_mcu7t5v0__oai31_1 A1 A2 A3 B ZN VDD VSS
.ends

* Black-box entry subcircuit for gf180mcu_fd_sc_mcu7t5v0__nor3_1 abstract view
.subckt gf180mcu_fd_sc_mcu7t5v0__nor3_1 A1 A2 A3 ZN VDD VSS
.ends

* Black-box entry subcircuit for gf180mcu_fd_sc_mcu7t5v0__and2_1 abstract view
.subckt gf180mcu_fd_sc_mcu7t5v0__and2_1 A1 A2 Z VDD VSS
.ends

* Black-box entry subcircuit for gf180mcu_fd_sc_mcu7t5v0__xor2_1 abstract view
.subckt gf180mcu_fd_sc_mcu7t5v0__xor2_1 A1 A2 Z VDD VSS
.ends

* Black-box entry subcircuit for gf180mcu_fd_sc_mcu7t5v0__tieh abstract view
.subckt gf180mcu_fd_sc_mcu7t5v0__tieh Z VDD VSS
.ends

* Black-box entry subcircuit for gf180mcu_fd_sc_mcu7t5v0__or4_1 abstract view
.subckt gf180mcu_fd_sc_mcu7t5v0__or4_1 A1 A2 A3 A4 Z VDD VSS
.ends

* Black-box entry subcircuit for gf180mcu_fd_sc_mcu7t5v0__clkinv_1 abstract view
.subckt gf180mcu_fd_sc_mcu7t5v0__clkinv_1 I ZN VDD VSS
.ends

* Black-box entry subcircuit for gf180mcu_fd_sc_mcu7t5v0__fillcap_64 abstract view
.subckt gf180mcu_fd_sc_mcu7t5v0__fillcap_64 VDD VSS
.ends

* Black-box entry subcircuit for gf180mcu_fd_sc_mcu7t5v0__endcap abstract view
.subckt gf180mcu_fd_sc_mcu7t5v0__endcap VDD VSS
.ends

* Black-box entry subcircuit for gf180mcu_fd_sc_mcu7t5v0__oai22_1 abstract view
.subckt gf180mcu_fd_sc_mcu7t5v0__oai22_1 A1 A2 B1 B2 ZN VDD VSS
.ends

* Black-box entry subcircuit for gf180mcu_fd_sc_mcu7t5v0__nor4_1 abstract view
.subckt gf180mcu_fd_sc_mcu7t5v0__nor4_1 A1 A2 A3 A4 ZN VDD VSS
.ends

* Black-box entry subcircuit for gf180mcu_fd_sc_mcu7t5v0__aoi222_1 abstract view
.subckt gf180mcu_fd_sc_mcu7t5v0__aoi222_1 A1 A2 B1 B2 C1 C2 ZN VDD VSS
.ends

* Black-box entry subcircuit for gf180mcu_fd_sc_mcu7t5v0__nand4_1 abstract view
.subckt gf180mcu_fd_sc_mcu7t5v0__nand4_1 A1 A2 A3 A4 ZN VDD VSS
.ends

* Black-box entry subcircuit for gf180mcu_fd_sc_mcu7t5v0__inv_1 abstract view
.subckt gf180mcu_fd_sc_mcu7t5v0__inv_1 I ZN VDD VSS
.ends

* Black-box entry subcircuit for gf180mcu_fd_sc_mcu7t5v0__clkbuf_1 abstract view
.subckt gf180mcu_fd_sc_mcu7t5v0__clkbuf_1 I Z VDD VSS
.ends

* Black-box entry subcircuit for gf180mcu_fd_sc_mcu7t5v0__and4_1 abstract view
.subckt gf180mcu_fd_sc_mcu7t5v0__and4_1 A1 A2 A3 A4 Z VDD VSS
.ends

* Black-box entry subcircuit for gf180mcu_fd_sc_mcu7t5v0__oai211_1 abstract view
.subckt gf180mcu_fd_sc_mcu7t5v0__oai211_1 A1 A2 B C ZN VDD VSS
.ends

* Black-box entry subcircuit for gf180mcu_fd_sc_mcu7t5v0__and3_1 abstract view
.subckt gf180mcu_fd_sc_mcu7t5v0__and3_1 A1 A2 A3 Z VDD VSS
.ends

* Black-box entry subcircuit for gf180mcu_fd_sc_mcu7t5v0__or2_1 abstract view
.subckt gf180mcu_fd_sc_mcu7t5v0__or2_1 A1 A2 Z VDD VSS
.ends

* Black-box entry subcircuit for gf180mcu_fd_sc_mcu7t5v0__or3_1 abstract view
.subckt gf180mcu_fd_sc_mcu7t5v0__or3_1 A1 A2 A3 Z VDD VSS
.ends

* Black-box entry subcircuit for gf180mcu_fd_sc_mcu7t5v0__buf_2 abstract view
.subckt gf180mcu_fd_sc_mcu7t5v0__buf_2 I Z VDD VSS
.ends

* Black-box entry subcircuit for gf180mcu_fd_sc_mcu7t5v0__clkbuf_2 abstract view
.subckt gf180mcu_fd_sc_mcu7t5v0__clkbuf_2 I Z VDD VSS
.ends

* Black-box entry subcircuit for gf180mcu_fd_sc_mcu7t5v0__xnor2_1 abstract view
.subckt gf180mcu_fd_sc_mcu7t5v0__xnor2_1 A1 A2 ZN VDD VSS
.ends

* Black-box entry subcircuit for gf180mcu_fd_sc_mcu7t5v0__dffnq_1 abstract view
.subckt gf180mcu_fd_sc_mcu7t5v0__dffnq_1 D CLKN Q VDD VSS
.ends

* Black-box entry subcircuit for gf180mcu_fd_sc_mcu7t5v0__oai32_1 abstract view
.subckt gf180mcu_fd_sc_mcu7t5v0__oai32_1 A1 A2 A3 B1 B2 ZN VDD VSS
.ends

* Black-box entry subcircuit for gf180mcu_fd_sc_mcu7t5v0__buf_4 abstract view
.subckt gf180mcu_fd_sc_mcu7t5v0__buf_4 I Z VDD VSS
.ends

* Black-box entry subcircuit for gf180mcu_fd_sc_mcu7t5v0__xor3_1 abstract view
.subckt gf180mcu_fd_sc_mcu7t5v0__xor3_1 A1 A2 A3 Z VDD VSS
.ends

* Black-box entry subcircuit for gf180mcu_fd_sc_mcu7t5v0__oai222_1 abstract view
.subckt gf180mcu_fd_sc_mcu7t5v0__oai222_1 A1 A2 B1 B2 C1 C2 ZN VDD VSS
.ends

.subckt serv_1 io_in[0] io_in[1] io_in[2] io_in[3] io_in[4] io_oeb[0] io_oeb[1] io_oeb[2]
+ io_oeb[3] io_oeb[4] io_out[0] io_out[1] io_out[2] io_out[3] io_out[4] vdd vss
XFILLER_41_1205 vdd vss gf180mcu_fd_sc_mcu7t5v0__fill_2
XANTENNA__07909__I0 _02593_ vdd vss gf180mcu_fd_sc_mcu7t5v0__antenna
XFILLER_95_851 vdd vss gf180mcu_fd_sc_mcu7t5v0__fill_1
XANTENNA__09523__A2 _04654_ vdd vss gf180mcu_fd_sc_mcu7t5v0__antenna
X_05903_ _02332_ u_cpu.cpu.mem_bytecnt\[1\] u_cpu.cpu.mem_bytecnt\[0\] _01409_ _02385_
+ vdd vss gf180mcu_fd_sc_mcu7t5v0__aoi22_1
X_09671_ _00125_ io_in[4] u_cpu.rf_ram.memory\[44\]\[3\] vdd vss gf180mcu_fd_sc_mcu7t5v0__dffq_1
XFILLER_28_918 vdd vss gf180mcu_fd_sc_mcu7t5v0__fillcap_4
X_06883_ u_cpu.rf_ram.memory\[60\]\[6\] _03002_ _03009_ vdd vss gf180mcu_fd_sc_mcu7t5v0__nand2_1
XFILLER_95_873 vdd vss gf180mcu_fd_sc_mcu7t5v0__fill_2
XFILLER_94_350 vdd vss gf180mcu_fd_sc_mcu7t5v0__fillcap_4
XANTENNA__06337__A2 _02686_ vdd vss gf180mcu_fd_sc_mcu7t5v0__antenna
XANTENNA__07534__A1 _03349_ vdd vss gf180mcu_fd_sc_mcu7t5v0__antenna
X_08622_ u_arbiter.i_wb_cpu_dbus_adr\[30\] _02445_ _04134_ vdd vss gf180mcu_fd_sc_mcu7t5v0__nand2_1
XFILLER_27_428 vdd vss gf180mcu_fd_sc_mcu7t5v0__fillcap_4
X_05834_ _02311_ u_cpu.cpu.immdec.imm31 _02317_ _02318_ vdd vss gf180mcu_fd_sc_mcu7t5v0__nand3_1
XFILLER_55_748 vdd vss gf180mcu_fd_sc_mcu7t5v0__fill_1
XFILLER_82_534 vdd vss gf180mcu_fd_sc_mcu7t5v0__fill_1
XFILLER_54_236 vdd vss gf180mcu_fd_sc_mcu7t5v0__fill_1
XFILLER_54_247 vdd vss gf180mcu_fd_sc_mcu7t5v0__fill_1
XFILLER_82_567 vdd vss gf180mcu_fd_sc_mcu7t5v0__fill_2
XANTENNA__09287__A1 _04484_ vdd vss gf180mcu_fd_sc_mcu7t5v0__antenna
X_05765_ u_cpu.rf_ram.memory\[32\]\[7\] u_cpu.rf_ram.memory\[33\]\[7\] u_cpu.rf_ram.memory\[34\]\[7\]
+ u_cpu.rf_ram.memory\[35\]\[7\] _01623_ _01624_ _02250_ vdd vss gf180mcu_fd_sc_mcu7t5v0__mux4_1
X_08553_ _03547_ _04094_ _04098_ _00938_ vdd vss gf180mcu_fd_sc_mcu7t5v0__oai21_1
XFILLER_36_995 vdd vss gf180mcu_fd_sc_mcu7t5v0__fill_2
XFILLER_39_1134 vdd vss gf180mcu_fd_sc_mcu7t5v0__fill_2
XFILLER_51_921 vdd vss gf180mcu_fd_sc_mcu7t5v0__fill_2
XFILLER_78_1183 vdd vss gf180mcu_fd_sc_mcu7t5v0__fillcap_4
X_07504_ u_cpu.rf_ram.memory\[22\]\[6\] _03345_ _03358_ vdd vss gf180mcu_fd_sc_mcu7t5v0__nand2_1
X_08484_ _03782_ _04037_ _04046_ _03797_ _04047_ vdd vss gf180mcu_fd_sc_mcu7t5v0__aoi211_1
XFILLER_51_932 vdd vss gf180mcu_fd_sc_mcu7t5v0__fill_1
XANTENNA__07837__A2 _03541_ vdd vss gf180mcu_fd_sc_mcu7t5v0__antenna
X_05696_ _01541_ _02181_ _02182_ vdd vss gf180mcu_fd_sc_mcu7t5v0__nand2_1
XFILLER_22_111 vdd vss gf180mcu_fd_sc_mcu7t5v0__fill_2
XANTENNA_u_scanchain_local.scan_flop\[45\]_SE io_in[3] vdd vss gf180mcu_fd_sc_mcu7t5v0__antenna
XANTENNA__05848__A1 _01369_ vdd vss gf180mcu_fd_sc_mcu7t5v0__antenna
X_07435_ _03161_ _03315_ _03317_ _00600_ vdd vss gf180mcu_fd_sc_mcu7t5v0__oai21_1
XFILLER_23_667 vdd vss gf180mcu_fd_sc_mcu7t5v0__fill_2
XFILLER_50_453 vdd vss gf180mcu_fd_sc_mcu7t5v0__fillcap_8
X_07366_ u_cpu.rf_ram.memory\[135\]\[3\] _03275_ _03279_ vdd vss gf180mcu_fd_sc_mcu7t5v0__nand2_1
X_09105_ u_cpu.rf_ram.memory\[106\]\[1\] _04419_ _04421_ vdd vss gf180mcu_fd_sc_mcu7t5v0__nand2_1
X_06317_ u_cpu.rf_ram.memory\[44\]\[2\] _02673_ _02676_ vdd vss gf180mcu_fd_sc_mcu7t5v0__nand2_1
XFILLER_108_205 vdd vss gf180mcu_fd_sc_mcu7t5v0__fill_2
X_07297_ _03167_ _03235_ _03240_ _00539_ vdd vss gf180mcu_fd_sc_mcu7t5v0__oai21_1
XANTENNA__10417__CLK io_in[4] vdd vss gf180mcu_fd_sc_mcu7t5v0__antenna
XANTENNA__06273__A1 _02625_ vdd vss gf180mcu_fd_sc_mcu7t5v0__antenna
X_09036_ _04286_ _04379_ _04382_ _01137_ vdd vss gf180mcu_fd_sc_mcu7t5v0__oai21_1
X_06248_ u_cpu.rf_ram.memory\[78\]\[6\] _02628_ _02635_ vdd vss gf180mcu_fd_sc_mcu7t5v0__nand2_1
XFILLER_11_1031 vdd vss gf180mcu_fd_sc_mcu7t5v0__fillcap_4
XFILLER_102_1170 vdd vss gf180mcu_fd_sc_mcu7t5v0__fill_1
XFILLER_123_208 vdd vss gf180mcu_fd_sc_mcu7t5v0__fillcap_4
XFILLER_11_1064 vdd vss gf180mcu_fd_sc_mcu7t5v0__fill_1
XFILLER_117_783 vdd vss gf180mcu_fd_sc_mcu7t5v0__fill_1
XFILLER_116_260 vdd vss gf180mcu_fd_sc_mcu7t5v0__fill_1
X_06179_ _02591_ _00070_ vdd vss gf180mcu_fd_sc_mcu7t5v0__buf_1
XANTENNA__08014__A2 _03648_ vdd vss gf180mcu_fd_sc_mcu7t5v0__antenna
XFILLER_137_1222 vdd vss gf180mcu_fd_sc_mcu7t5v0__fill_2
XFILLER_116_271 vdd vss gf180mcu_fd_sc_mcu7t5v0__fill_2
XFILLER_89_122 vdd vss gf180mcu_fd_sc_mcu7t5v0__fill_2
XANTENNA__05078__I _01398_ vdd vss gf180mcu_fd_sc_mcu7t5v0__antenna
XFILLER_89_133 vdd vss gf180mcu_fd_sc_mcu7t5v0__fillcap_8
XANTENNA__05459__S0 _01680_ vdd vss gf180mcu_fd_sc_mcu7t5v0__antenna
XFILLER_131_230 vdd vss gf180mcu_fd_sc_mcu7t5v0__fillcap_4
XFILLER_117_66 vdd vss gf180mcu_fd_sc_mcu7t5v0__fillcap_4
XFILLER_78_807 vdd vss gf180mcu_fd_sc_mcu7t5v0__fill_2
XFILLER_89_144 vdd vss gf180mcu_fd_sc_mcu7t5v0__fill_2
XFILLER_78_818 vdd vss gf180mcu_fd_sc_mcu7t5v0__fill_2
XFILLER_85_1187 vdd vss gf180mcu_fd_sc_mcu7t5v0__fill_1
XFILLER_89_155 vdd vss gf180mcu_fd_sc_mcu7t5v0__fillcap_4
XANTENNA__10567__CLK io_in[4] vdd vss gf180mcu_fd_sc_mcu7t5v0__antenna
XFILLER_46_1149 vdd vss gf180mcu_fd_sc_mcu7t5v0__fill_2
XANTENNA__06576__A2 _02834_ vdd vss gf180mcu_fd_sc_mcu7t5v0__antenna
XFILLER_78_829 vdd vss gf180mcu_fd_sc_mcu7t5v0__fill_2
X_09938_ _00392_ io_in[4] u_cpu.rf_ram.memory\[56\]\[1\] vdd vss gf180mcu_fd_sc_mcu7t5v0__dffq_1
XFILLER_89_199 vdd vss gf180mcu_fd_sc_mcu7t5v0__fillcap_4
XFILLER_77_339 vdd vss gf180mcu_fd_sc_mcu7t5v0__fill_2
XFILLER_58_531 vdd vss gf180mcu_fd_sc_mcu7t5v0__fill_1
XANTENNA__09514__A2 _04654_ vdd vss gf180mcu_fd_sc_mcu7t5v0__antenna
XFILLER_92_309 vdd vss gf180mcu_fd_sc_mcu7t5v0__fill_2
X_09869_ _00323_ io_in[4] u_cpu.rf_ram.memory\[29\]\[4\] vdd vss gf180mcu_fd_sc_mcu7t5v0__dffq_1
XANTENNA__06328__A2 _02673_ vdd vss gf180mcu_fd_sc_mcu7t5v0__antenna
XFILLER_18_428 vdd vss gf180mcu_fd_sc_mcu7t5v0__fillcap_4
XFILLER_46_737 vdd vss gf180mcu_fd_sc_mcu7t5v0__fill_2
XFILLER_85_372 vdd vss gf180mcu_fd_sc_mcu7t5v0__fill_2
XTAP_2501 vdd vss gf180mcu_fd_sc_mcu7t5v0__filltie
XFILLER_2_1221 vdd vss gf180mcu_fd_sc_mcu7t5v0__fill_2
XFILLER_85_394 vdd vss gf180mcu_fd_sc_mcu7t5v0__fillcap_4
XFILLER_93_47 vdd vss gf180mcu_fd_sc_mcu7t5v0__fill_1
XFILLER_45_236 vdd vss gf180mcu_fd_sc_mcu7t5v0__fill_2
XTAP_2512 vdd vss gf180mcu_fd_sc_mcu7t5v0__filltie
XFILLER_45_247 vdd vss gf180mcu_fd_sc_mcu7t5v0__fill_2
XTAP_2523 vdd vss gf180mcu_fd_sc_mcu7t5v0__filltie
XTAP_2534 vdd vss gf180mcu_fd_sc_mcu7t5v0__filltie
XFILLER_73_567 vdd vss gf180mcu_fd_sc_mcu7t5v0__fill_1
XTAP_2545 vdd vss gf180mcu_fd_sc_mcu7t5v0__filltie
XTAP_1800 vdd vss gf180mcu_fd_sc_mcu7t5v0__filltie
XFILLER_27_973 vdd vss gf180mcu_fd_sc_mcu7t5v0__fillcap_4
XFILLER_73_578 vdd vss gf180mcu_fd_sc_mcu7t5v0__fillcap_4
XTAP_2556 vdd vss gf180mcu_fd_sc_mcu7t5v0__filltie
XTAP_1811 vdd vss gf180mcu_fd_sc_mcu7t5v0__filltie
XTAP_1822 vdd vss gf180mcu_fd_sc_mcu7t5v0__filltie
XFILLER_57_1223 vdd vss gf180mcu_fd_sc_mcu7t5v0__fill_1
XTAP_2567 vdd vss gf180mcu_fd_sc_mcu7t5v0__filltie
XTAP_2578 vdd vss gf180mcu_fd_sc_mcu7t5v0__filltie
XTAP_1833 vdd vss gf180mcu_fd_sc_mcu7t5v0__filltie
XTAP_2589 vdd vss gf180mcu_fd_sc_mcu7t5v0__filltie
XANTENNA__07828__A2 _03541_ vdd vss gf180mcu_fd_sc_mcu7t5v0__antenna
XFILLER_92_1136 vdd vss gf180mcu_fd_sc_mcu7t5v0__fillcap_4
XTAP_1844 vdd vss gf180mcu_fd_sc_mcu7t5v0__filltie
XFILLER_14_634 vdd vss gf180mcu_fd_sc_mcu7t5v0__fill_2
XTAP_1855 vdd vss gf180mcu_fd_sc_mcu7t5v0__filltie
XFILLER_13_111 vdd vss gf180mcu_fd_sc_mcu7t5v0__fillcap_8
XTAP_1866 vdd vss gf180mcu_fd_sc_mcu7t5v0__filltie
XFILLER_41_431 vdd vss gf180mcu_fd_sc_mcu7t5v0__fill_2
XFILLER_13_133 vdd vss gf180mcu_fd_sc_mcu7t5v0__fill_2
X_10713_ _01142_ io_in[4] u_cpu.rf_ram.memory\[104\]\[7\] vdd vss gf180mcu_fd_sc_mcu7t5v0__dffq_1
XTAP_1877 vdd vss gf180mcu_fd_sc_mcu7t5v0__filltie
XFILLER_14_667 vdd vss gf180mcu_fd_sc_mcu7t5v0__fill_2
XFILLER_13_144 vdd vss gf180mcu_fd_sc_mcu7t5v0__fill_1
XTAP_1888 vdd vss gf180mcu_fd_sc_mcu7t5v0__filltie
XTAP_1899 vdd vss gf180mcu_fd_sc_mcu7t5v0__filltie
XANTENNA__06500__A2 _02791_ vdd vss gf180mcu_fd_sc_mcu7t5v0__antenna
XFILLER_9_137 vdd vss gf180mcu_fd_sc_mcu7t5v0__fillcap_4
X_10644_ _01073_ io_in[4] u_cpu.rf_ram.memory\[95\]\[4\] vdd vss gf180mcu_fd_sc_mcu7t5v0__dffq_1
XFILLER_107_1070 vdd vss gf180mcu_fd_sc_mcu7t5v0__fill_2
XFILLER_139_363 vdd vss gf180mcu_fd_sc_mcu7t5v0__fill_2
XFILLER_107_1092 vdd vss gf180mcu_fd_sc_mcu7t5v0__fill_1
X_10575_ _01005_ io_in[4] u_cpu.cpu.ctrl.o_ibus_adr\[21\] vdd vss gf180mcu_fd_sc_mcu7t5v0__dffq_1
XANTENNA__10097__CLK io_in[4] vdd vss gf180mcu_fd_sc_mcu7t5v0__antenna
XANTENNA__08253__A2 _03740_ vdd vss gf180mcu_fd_sc_mcu7t5v0__antenna
XANTENNA__09450__A1 _04482_ vdd vss gf180mcu_fd_sc_mcu7t5v0__antenna
XFILLER_139_396 vdd vss gf180mcu_fd_sc_mcu7t5v0__fillcap_16
XFILLER_10_884 vdd vss gf180mcu_fd_sc_mcu7t5v0__fill_2
XANTENNA__06264__A1 _02497_ vdd vss gf180mcu_fd_sc_mcu7t5v0__antenna
XFILLER_115_709 vdd vss gf180mcu_fd_sc_mcu7t5v0__fill_1
XFILLER_5_354 vdd vss gf180mcu_fd_sc_mcu7t5v0__fill_1
XANTENNA__08005__A2 u_cpu.cpu.mem_bytecnt\[1\] vdd vss gf180mcu_fd_sc_mcu7t5v0__antenna
Xu_scanchain_local.scan_flop\[34\] u_arbiter.i_wb_cpu_rdt\[31\] io_in[3] u_arbiter.i_wb_cpu_dbus_dat\[28\]
+ u_scanchain_local.clk u_scanchain_local.module_data_in\[34\] vdd vss gf180mcu_fd_sc_mcu7t5v0__sdffq_1
XANTENNA__07764__A1 _03359_ vdd vss gf180mcu_fd_sc_mcu7t5v0__antenna
XANTENNA__06567__A2 _02823_ vdd vss gf180mcu_fd_sc_mcu7t5v0__antenna
XFILLER_1_560 vdd vss gf180mcu_fd_sc_mcu7t5v0__fill_2
XFILLER_68_328 vdd vss gf180mcu_fd_sc_mcu7t5v0__fill_2
XFILLER_49_520 vdd vss gf180mcu_fd_sc_mcu7t5v0__fill_1
XFILLER_96_659 vdd vss gf180mcu_fd_sc_mcu7t5v0__fillcap_8
XFILLER_49_531 vdd vss gf180mcu_fd_sc_mcu7t5v0__fill_2
XFILLER_95_147 vdd vss gf180mcu_fd_sc_mcu7t5v0__fill_2
XFILLER_27_1082 vdd vss gf180mcu_fd_sc_mcu7t5v0__fill_2
XFILLER_77_851 vdd vss gf180mcu_fd_sc_mcu7t5v0__fill_1
X_11058_ _11058_/ZN vdd vss gf180mcu_fd_sc_mcu7t5v0__tiel
XANTENNA__09505__A2 _04644_ vdd vss gf180mcu_fd_sc_mcu7t5v0__antenna
XFILLER_49_553 vdd vss gf180mcu_fd_sc_mcu7t5v0__fill_2
XFILLER_110_469 vdd vss gf180mcu_fd_sc_mcu7t5v0__fill_2
XANTENNA__06319__A2 _02673_ vdd vss gf180mcu_fd_sc_mcu7t5v0__antenna
XFILLER_37_715 vdd vss gf180mcu_fd_sc_mcu7t5v0__fill_2
XANTENNA__07516__A1 _03349_ vdd vss gf180mcu_fd_sc_mcu7t5v0__antenna
XFILLER_67_92 vdd vss gf180mcu_fd_sc_mcu7t5v0__fill_2
X_10009_ _00455_ io_in[4] u_cpu.rf_ram.memory\[141\]\[0\] vdd vss gf180mcu_fd_sc_mcu7t5v0__dffq_1
XFILLER_92_832 vdd vss gf180mcu_fd_sc_mcu7t5v0__fill_2
XFILLER_114_1096 vdd vss gf180mcu_fd_sc_mcu7t5v0__fillcap_4
XFILLER_64_534 vdd vss gf180mcu_fd_sc_mcu7t5v0__fill_1
XANTENNA_u_scanchain_local.scan_flop\[68\]_SE io_in[3] vdd vss gf180mcu_fd_sc_mcu7t5v0__antenna
XFILLER_36_236 vdd vss gf180mcu_fd_sc_mcu7t5v0__fill_1
XFILLER_92_865 vdd vss gf180mcu_fd_sc_mcu7t5v0__fillcap_4
XFILLER_18_951 vdd vss gf180mcu_fd_sc_mcu7t5v0__fill_2
XFILLER_36_247 vdd vss gf180mcu_fd_sc_mcu7t5v0__fill_1
XFILLER_92_876 vdd vss gf180mcu_fd_sc_mcu7t5v0__fill_2
XANTENNA__05622__S0 _01571_ vdd vss gf180mcu_fd_sc_mcu7t5v0__antenna
XANTENNA__09269__A1 _04484_ vdd vss gf180mcu_fd_sc_mcu7t5v0__antenna
XFILLER_17_472 vdd vss gf180mcu_fd_sc_mcu7t5v0__fill_2
XFILLER_45_792 vdd vss gf180mcu_fd_sc_mcu7t5v0__fillcap_4
X_05550_ _01399_ _02037_ _02038_ vdd vss gf180mcu_fd_sc_mcu7t5v0__nor2_1
XANTENNA__08963__S _04331_ vdd vss gf180mcu_fd_sc_mcu7t5v0__antenna
XFILLER_71_1209 vdd vss gf180mcu_fd_sc_mcu7t5v0__fillcap_8
X_05481_ u_cpu.rf_ram.memory\[28\]\[4\] u_cpu.rf_ram.memory\[29\]\[4\] u_cpu.rf_ram.memory\[30\]\[4\]
+ u_cpu.rf_ram.memory\[31\]\[4\] _01572_ _01574_ _01969_ vdd vss gf180mcu_fd_sc_mcu7t5v0__mux4_1
XFILLER_20_615 vdd vss gf180mcu_fd_sc_mcu7t5v0__fill_2
X_07220_ _03161_ _03196_ _03198_ _00504_ vdd vss gf180mcu_fd_sc_mcu7t5v0__oai21_1
XFILLER_34_1031 vdd vss gf180mcu_fd_sc_mcu7t5v0__fill_1
XFILLER_80_2 vdd vss gf180mcu_fd_sc_mcu7t5v0__fillcap_4
XANTENNA__08619__I1 u_arbiter.i_wb_cpu_dbus_adr\[29\] vdd vss gf180mcu_fd_sc_mcu7t5v0__antenna
XFILLER_34_1042 vdd vss gf180mcu_fd_sc_mcu7t5v0__fill_2
XFILLER_118_514 vdd vss gf180mcu_fd_sc_mcu7t5v0__fill_2
X_07151_ _02599_ u_cpu.rf_ram.memory\[13\]\[7\] _03148_ _03156_ vdd vss gf180mcu_fd_sc_mcu7t5v0__mux2_2
XANTENNA__09732__CLK io_in[4] vdd vss gf180mcu_fd_sc_mcu7t5v0__antenna
XANTENNA__08244__A2 _03790_ vdd vss gf180mcu_fd_sc_mcu7t5v0__antenna
XFILLER_9_693 vdd vss gf180mcu_fd_sc_mcu7t5v0__fill_1
XFILLER_34_1097 vdd vss gf180mcu_fd_sc_mcu7t5v0__fill_2
XFILLER_121_1056 vdd vss gf180mcu_fd_sc_mcu7t5v0__fillcap_8
XFILLER_118_547 vdd vss gf180mcu_fd_sc_mcu7t5v0__fill_2
X_06102_ _02482_ _02541_ _02542_ _00042_ vdd vss gf180mcu_fd_sc_mcu7t5v0__oai21_1
XFILLER_69_1116 vdd vss gf180mcu_fd_sc_mcu7t5v0__fill_2
XFILLER_121_1067 vdd vss gf180mcu_fd_sc_mcu7t5v0__fillcap_4
XANTENNA__06255__A1 _02638_ vdd vss gf180mcu_fd_sc_mcu7t5v0__antenna
X_07082_ _02625_ _02832_ _03118_ vdd vss gf180mcu_fd_sc_mcu7t5v0__nand2_1
XFILLER_69_1138 vdd vss gf180mcu_fd_sc_mcu7t5v0__fill_2
XFILLER_69_1149 vdd vss gf180mcu_fd_sc_mcu7t5v0__fill_1
X_06033_ _02477_ _02487_ _02488_ _00027_ vdd vss gf180mcu_fd_sc_mcu7t5v0__oai21_1
XANTENNA__07055__I0 _02587_ vdd vss gf180mcu_fd_sc_mcu7t5v0__antenna
XANTENNA__09882__CLK io_in[4] vdd vss gf180mcu_fd_sc_mcu7t5v0__antenna
XANTENNA__08203__S _01436_ vdd vss gf180mcu_fd_sc_mcu7t5v0__antenna
XFILLER_102_926 vdd vss gf180mcu_fd_sc_mcu7t5v0__fill_2
XANTENNA__06558__A2 _02823_ vdd vss gf180mcu_fd_sc_mcu7t5v0__antenna
XFILLER_101_403 vdd vss gf180mcu_fd_sc_mcu7t5v0__fill_2
XFILLER_101_425 vdd vss gf180mcu_fd_sc_mcu7t5v0__fill_1
X_07984_ _03553_ _03626_ _03633_ _00834_ vdd vss gf180mcu_fd_sc_mcu7t5v0__oai21_1
XFILLER_47_18 vdd vss gf180mcu_fd_sc_mcu7t5v0__fillcap_4
XFILLER_47_29 vdd vss gf180mcu_fd_sc_mcu7t5v0__fill_2
X_09723_ _00177_ io_in[4] u_cpu.rf_ram.memory\[50\]\[7\] vdd vss gf180mcu_fd_sc_mcu7t5v0__dffq_1
XFILLER_101_469 vdd vss gf180mcu_fd_sc_mcu7t5v0__fill_2
X_06935_ _02965_ _03031_ _03037_ _00380_ vdd vss gf180mcu_fd_sc_mcu7t5v0__oai21_1
XFILLER_67_361 vdd vss gf180mcu_fd_sc_mcu7t5v0__fillcap_4
XFILLER_68_884 vdd vss gf180mcu_fd_sc_mcu7t5v0__fill_2
XFILLER_80_1095 vdd vss gf180mcu_fd_sc_mcu7t5v0__fill_2
XANTENNA__08704__B1 _04175_ vdd vss gf180mcu_fd_sc_mcu7t5v0__antenna
X_09654_ _00108_ io_in[4] u_cpu.rf_ram.memory\[46\]\[2\] vdd vss gf180mcu_fd_sc_mcu7t5v0__dffq_1
X_06866_ _02967_ _02992_ _02999_ _00349_ vdd vss gf180mcu_fd_sc_mcu7t5v0__oai21_1
XFILLER_103_35 vdd vss gf180mcu_fd_sc_mcu7t5v0__fill_1
XANTENNA__08180__A1 _03773_ vdd vss gf180mcu_fd_sc_mcu7t5v0__antenna
XFILLER_83_854 vdd vss gf180mcu_fd_sc_mcu7t5v0__fill_1
XANTENNA__05613__S0 _01610_ vdd vss gf180mcu_fd_sc_mcu7t5v0__antenna
X_08605_ u_arbiter.i_wb_cpu_dbus_adr\[23\] u_arbiter.i_wb_cpu_dbus_adr\[22\] _04115_
+ _04125_ vdd vss gf180mcu_fd_sc_mcu7t5v0__mux2_2
XFILLER_55_567 vdd vss gf180mcu_fd_sc_mcu7t5v0__fill_1
XFILLER_43_718 vdd vss gf180mcu_fd_sc_mcu7t5v0__fill_2
X_05817_ _02295_ _02297_ _02299_ _02301_ _01404_ _02302_ vdd vss gf180mcu_fd_sc_mcu7t5v0__oai221_1
X_09585_ _00039_ io_in[4] u_cpu.rf_ram.memory\[21\]\[5\] vdd vss gf180mcu_fd_sc_mcu7t5v0__dffq_1
X_06797_ _02491_ _02959_ vdd vss gf180mcu_fd_sc_mcu7t5v0__buf_1
XANTENNA__08307__I0 u_arbiter.i_wb_cpu_rdt\[26\] vdd vss gf180mcu_fd_sc_mcu7t5v0__antenna
XTAP_1107 vdd vss gf180mcu_fd_sc_mcu7t5v0__filltie
XTAP_1118 vdd vss gf180mcu_fd_sc_mcu7t5v0__filltie
XANTENNA__06730__A2 _02914_ vdd vss gf180mcu_fd_sc_mcu7t5v0__antenna
XTAP_1129 vdd vss gf180mcu_fd_sc_mcu7t5v0__filltie
XFILLER_70_537 vdd vss gf180mcu_fd_sc_mcu7t5v0__fill_2
X_08536_ u_cpu.rf_ram.memory\[32\]\[4\] _04084_ _04089_ vdd vss gf180mcu_fd_sc_mcu7t5v0__nand2_1
X_05748_ _01542_ _02232_ _01417_ _02233_ vdd vss gf180mcu_fd_sc_mcu7t5v0__aoi21_1
XFILLER_23_431 vdd vss gf180mcu_fd_sc_mcu7t5v0__fill_2
XFILLER_24_954 vdd vss gf180mcu_fd_sc_mcu7t5v0__fillcap_4
XFILLER_51_751 vdd vss gf180mcu_fd_sc_mcu7t5v0__fillcap_8
X_05679_ _02158_ _02160_ _02162_ _02164_ _01628_ _02165_ vdd vss gf180mcu_fd_sc_mcu7t5v0__aoi221_1
X_08467_ _03890_ _03790_ _04031_ vdd vss gf180mcu_fd_sc_mcu7t5v0__nand2_1
XFILLER_50_250 vdd vss gf180mcu_fd_sc_mcu7t5v0__fillcap_4
XFILLER_11_615 vdd vss gf180mcu_fd_sc_mcu7t5v0__fill_2
XFILLER_24_998 vdd vss gf180mcu_fd_sc_mcu7t5v0__fill_1
XANTENNA__05297__A2 _01786_ vdd vss gf180mcu_fd_sc_mcu7t5v0__antenna
XANTENNA__06494__A1 _02769_ vdd vss gf180mcu_fd_sc_mcu7t5v0__antenna
X_07418_ u_cpu.rf_ram.memory\[132\]\[2\] _03305_ _03308_ vdd vss gf180mcu_fd_sc_mcu7t5v0__nand2_1
X_08398_ _03743_ _03786_ _03828_ _03831_ _03904_ _03970_ vdd vss gf180mcu_fd_sc_mcu7t5v0__aoi221_1
XFILLER_104_1221 vdd vss gf180mcu_fd_sc_mcu7t5v0__fill_2
XFILLER_7_619 vdd vss gf180mcu_fd_sc_mcu7t5v0__fill_1
XFILLER_109_514 vdd vss gf180mcu_fd_sc_mcu7t5v0__fill_2
X_07349_ _03165_ _03265_ _03269_ _00562_ vdd vss gf180mcu_fd_sc_mcu7t5v0__oai21_1
XANTENNA__09432__A1 _04482_ vdd vss gf180mcu_fd_sc_mcu7t5v0__antenna
XFILLER_128_10 vdd vss gf180mcu_fd_sc_mcu7t5v0__fill_2
XFILLER_137_867 vdd vss gf180mcu_fd_sc_mcu7t5v0__fillcap_4
XFILLER_128_32 vdd vss gf180mcu_fd_sc_mcu7t5v0__fill_2
XFILLER_100_1118 vdd vss gf180mcu_fd_sc_mcu7t5v0__fill_2
X_10360_ _00793_ io_in[4] u_cpu.rf_ram.memory\[8\]\[5\] vdd vss gf180mcu_fd_sc_mcu7t5v0__dffq_1
XFILLER_136_366 vdd vss gf180mcu_fd_sc_mcu7t5v0__fill_2
XANTENNA__07994__A1 _03545_ vdd vss gf180mcu_fd_sc_mcu7t5v0__antenna
X_09019_ u_cpu.rf_ram.memory\[103\]\[3\] _04369_ _04373_ vdd vss gf180mcu_fd_sc_mcu7t5v0__nand2_1
X_10291_ _00724_ io_in[4] u_cpu.rf_ram.memory\[90\]\[5\] vdd vss gf180mcu_fd_sc_mcu7t5v0__dffq_1
XFILLER_105_720 vdd vss gf180mcu_fd_sc_mcu7t5v0__fillcap_4
XFILLER_117_580 vdd vss gf180mcu_fd_sc_mcu7t5v0__fill_2
XFILLER_88_47 vdd vss gf180mcu_fd_sc_mcu7t5v0__fill_2
XFILLER_105_753 vdd vss gf180mcu_fd_sc_mcu7t5v0__fill_2
XFILLER_137_1041 vdd vss gf180mcu_fd_sc_mcu7t5v0__fillcap_16
XANTENNA__06549__A2 _02812_ vdd vss gf180mcu_fd_sc_mcu7t5v0__antenna
XANTENNA__07746__A1 _01428_ vdd vss gf180mcu_fd_sc_mcu7t5v0__antenna
XFILLER_59_840 vdd vss gf180mcu_fd_sc_mcu7t5v0__fill_2
XFILLER_77_147 vdd vss gf180mcu_fd_sc_mcu7t5v0__fill_2
XANTENNA__09499__A1 _04478_ vdd vss gf180mcu_fd_sc_mcu7t5v0__antenna
XFILLER_19_715 vdd vss gf180mcu_fd_sc_mcu7t5v0__fill_2
XFILLER_92_117 vdd vss gf180mcu_fd_sc_mcu7t5v0__fillcap_4
XFILLER_58_372 vdd vss gf180mcu_fd_sc_mcu7t5v0__fill_1
XFILLER_74_821 vdd vss gf180mcu_fd_sc_mcu7t5v0__fill_2
XFILLER_46_534 vdd vss gf180mcu_fd_sc_mcu7t5v0__fill_1
XFILLER_58_394 vdd vss gf180mcu_fd_sc_mcu7t5v0__fill_1
XANTENNA__09605__CLK io_in[4] vdd vss gf180mcu_fd_sc_mcu7t5v0__antenna
XANTENNA__08171__A1 _03754_ vdd vss gf180mcu_fd_sc_mcu7t5v0__antenna
XFILLER_18_247 vdd vss gf180mcu_fd_sc_mcu7t5v0__fill_1
XFILLER_37_73 vdd vss gf180mcu_fd_sc_mcu7t5v0__fill_1
XTAP_2320 vdd vss gf180mcu_fd_sc_mcu7t5v0__filltie
XFILLER_34_718 vdd vss gf180mcu_fd_sc_mcu7t5v0__fill_2
XTAP_2331 vdd vss gf180mcu_fd_sc_mcu7t5v0__filltie
XANTENNA__05524__A3 _02011_ vdd vss gf180mcu_fd_sc_mcu7t5v0__antenna
XTAP_2342 vdd vss gf180mcu_fd_sc_mcu7t5v0__filltie
XFILLER_27_770 vdd vss gf180mcu_fd_sc_mcu7t5v0__fill_2
XANTENNA__06721__A2 _02914_ vdd vss gf180mcu_fd_sc_mcu7t5v0__antenna
XTAP_2353 vdd vss gf180mcu_fd_sc_mcu7t5v0__filltie
XTAP_2364 vdd vss gf180mcu_fd_sc_mcu7t5v0__filltie
XTAP_2375 vdd vss gf180mcu_fd_sc_mcu7t5v0__filltie
XFILLER_33_239 vdd vss gf180mcu_fd_sc_mcu7t5v0__fill_2
XTAP_1630 vdd vss gf180mcu_fd_sc_mcu7t5v0__filltie
XFILLER_14_420 vdd vss gf180mcu_fd_sc_mcu7t5v0__fill_1
XFILLER_61_559 vdd vss gf180mcu_fd_sc_mcu7t5v0__fill_2
XTAP_1641 vdd vss gf180mcu_fd_sc_mcu7t5v0__filltie
XTAP_2386 vdd vss gf180mcu_fd_sc_mcu7t5v0__filltie
XTAP_2397 vdd vss gf180mcu_fd_sc_mcu7t5v0__filltie
XFILLER_57_1064 vdd vss gf180mcu_fd_sc_mcu7t5v0__fill_1
XTAP_1652 vdd vss gf180mcu_fd_sc_mcu7t5v0__filltie
XTAP_1663 vdd vss gf180mcu_fd_sc_mcu7t5v0__filltie
XANTENNA__09755__CLK io_in[4] vdd vss gf180mcu_fd_sc_mcu7t5v0__antenna
XFILLER_30_913 vdd vss gf180mcu_fd_sc_mcu7t5v0__fill_1
XTAP_1674 vdd vss gf180mcu_fd_sc_mcu7t5v0__filltie
XFILLER_30_924 vdd vss gf180mcu_fd_sc_mcu7t5v0__fillcap_4
XFILLER_41_250 vdd vss gf180mcu_fd_sc_mcu7t5v0__fill_2
XTAP_1685 vdd vss gf180mcu_fd_sc_mcu7t5v0__filltie
XFILLER_109_1165 vdd vss gf180mcu_fd_sc_mcu7t5v0__fill_2
XFILLER_14_475 vdd vss gf180mcu_fd_sc_mcu7t5v0__fill_2
XTAP_1696 vdd vss gf180mcu_fd_sc_mcu7t5v0__filltie
XANTENNA__06485__A1 u_arbiter.i_wb_cpu_ack vdd vss gf180mcu_fd_sc_mcu7t5v0__antenna
XFILLER_41_283 vdd vss gf180mcu_fd_sc_mcu7t5v0__fill_1
XANTENNA__05288__A2 _01778_ vdd vss gf180mcu_fd_sc_mcu7t5v0__antenna
XFILLER_30_957 vdd vss gf180mcu_fd_sc_mcu7t5v0__fill_1
XFILLER_128_812 vdd vss gf180mcu_fd_sc_mcu7t5v0__fill_1
XANTENNA__10732__CLK io_in[4] vdd vss gf180mcu_fd_sc_mcu7t5v0__antenna
XFILLER_139_160 vdd vss gf180mcu_fd_sc_mcu7t5v0__fillcap_8
X_10627_ _01056_ io_in[4] u_cpu.rf_ram.memory\[97\]\[3\] vdd vss gf180mcu_fd_sc_mcu7t5v0__dffq_1
XFILLER_128_834 vdd vss gf180mcu_fd_sc_mcu7t5v0__fillcap_4
XANTENNA__08226__A2 _03798_ vdd vss gf180mcu_fd_sc_mcu7t5v0__antenna
XANTENNA_u_scanchain_local.scan_flop\[2\]_CLK u_scanchain_local.clk vdd vss gf180mcu_fd_sc_mcu7t5v0__antenna
XFILLER_127_333 vdd vss gf180mcu_fd_sc_mcu7t5v0__fill_2
XFILLER_6_630 vdd vss gf180mcu_fd_sc_mcu7t5v0__fill_2
XANTENNA__06237__A1 _02482_ vdd vss gf180mcu_fd_sc_mcu7t5v0__antenna
XFILLER_128_867 vdd vss gf180mcu_fd_sc_mcu7t5v0__fill_2
XANTENNA__05220__B _01418_ vdd vss gf180mcu_fd_sc_mcu7t5v0__antenna
XFILLER_143_804 vdd vss gf180mcu_fd_sc_mcu7t5v0__fill_2
XFILLER_10_692 vdd vss gf180mcu_fd_sc_mcu7t5v0__fill_2
XFILLER_128_889 vdd vss gf180mcu_fd_sc_mcu7t5v0__fillcap_4
XFILLER_115_506 vdd vss gf180mcu_fd_sc_mcu7t5v0__fill_1
X_10558_ _00988_ io_in[4] u_cpu.cpu.ctrl.o_ibus_adr\[4\] vdd vss gf180mcu_fd_sc_mcu7t5v0__dffq_1
XANTENNA__06788__A2 _02944_ vdd vss gf180mcu_fd_sc_mcu7t5v0__antenna
XFILLER_142_314 vdd vss gf180mcu_fd_sc_mcu7t5v0__fillcap_4
XFILLER_143_859 vdd vss gf180mcu_fd_sc_mcu7t5v0__fillcap_32
X_10489_ _00922_ io_in[4] u_cpu.cpu.immdec.imm19_12_20\[6\] vdd vss gf180mcu_fd_sc_mcu7t5v0__dffq_1
XFILLER_64_1002 vdd vss gf180mcu_fd_sc_mcu7t5v0__fill_2
XANTENNA__10882__CLK io_in[4] vdd vss gf180mcu_fd_sc_mcu7t5v0__antenna
XFILLER_9_1205 vdd vss gf180mcu_fd_sc_mcu7t5v0__fill_2
XFILLER_69_604 vdd vss gf180mcu_fd_sc_mcu7t5v0__fill_2
XANTENNA__07737__A1 _01408_ vdd vss gf180mcu_fd_sc_mcu7t5v0__antenna
XFILLER_111_712 vdd vss gf180mcu_fd_sc_mcu7t5v0__fill_1
XANTENNA__08250__C _03835_ vdd vss gf180mcu_fd_sc_mcu7t5v0__antenna
XFILLER_116_1114 vdd vss gf180mcu_fd_sc_mcu7t5v0__fill_1
XFILLER_96_423 vdd vss gf180mcu_fd_sc_mcu7t5v0__fillcap_8
XFILLER_29_1188 vdd vss gf180mcu_fd_sc_mcu7t5v0__fill_2