* NGSPICE file created from serv_0.ext - technology: gf180mcuC

* Black-box entry subcircuit for gf180mcu_fd_sc_mcu7t5v0__fillcap_4 abstract view
.subckt gf180mcu_fd_sc_mcu7t5v0__fillcap_4 VDD VSS
.ends

* Black-box entry subcircuit for gf180mcu_fd_sc_mcu7t5v0__fill_2 abstract view
.subckt gf180mcu_fd_sc_mcu7t5v0__fill_2 VDD VSS
.ends

* Black-box entry subcircuit for gf180mcu_fd_sc_mcu7t5v0__aoi211_1 abstract view
.subckt gf180mcu_fd_sc_mcu7t5v0__aoi211_1 A1 A2 B C ZN VDD VSS
.ends

* Black-box entry subcircuit for gf180mcu_fd_sc_mcu7t5v0__fillcap_8 abstract view
.subckt gf180mcu_fd_sc_mcu7t5v0__fillcap_8 VDD VSS
.ends

* Black-box entry subcircuit for gf180mcu_fd_sc_mcu7t5v0__fillcap_32 abstract view
.subckt gf180mcu_fd_sc_mcu7t5v0__fillcap_32 VDD VSS
.ends

* Black-box entry subcircuit for gf180mcu_fd_sc_mcu7t5v0__buf_1 abstract view
.subckt gf180mcu_fd_sc_mcu7t5v0__buf_1 I Z VDD VSS
.ends

* Black-box entry subcircuit for gf180mcu_fd_sc_mcu7t5v0__fill_1 abstract view
.subckt gf180mcu_fd_sc_mcu7t5v0__fill_1 VDD VSS
.ends

* Black-box entry subcircuit for gf180mcu_fd_sc_mcu7t5v0__antenna abstract view
.subckt gf180mcu_fd_sc_mcu7t5v0__antenna I VDD VSS
.ends

* Black-box entry subcircuit for gf180mcu_fd_sc_mcu7t5v0__tiel abstract view
.subckt gf180mcu_fd_sc_mcu7t5v0__tiel ZN VDD VSS
.ends

* Black-box entry subcircuit for gf180mcu_fd_sc_mcu7t5v0__fillcap_64 abstract view
.subckt gf180mcu_fd_sc_mcu7t5v0__fillcap_64 VDD VSS
.ends

* Black-box entry subcircuit for gf180mcu_fd_sc_mcu7t5v0__filltie abstract view
.subckt gf180mcu_fd_sc_mcu7t5v0__filltie VDD VSS
.ends

* Black-box entry subcircuit for gf180mcu_fd_sc_mcu7t5v0__sdffq_1 abstract view
.subckt gf180mcu_fd_sc_mcu7t5v0__sdffq_1 D SE SI CLK Q VDD VSS
.ends

* Black-box entry subcircuit for gf180mcu_fd_sc_mcu7t5v0__dffq_1 abstract view
.subckt gf180mcu_fd_sc_mcu7t5v0__dffq_1 D CLK Q VDD VSS
.ends

* Black-box entry subcircuit for gf180mcu_fd_sc_mcu7t5v0__nand2_1 abstract view
.subckt gf180mcu_fd_sc_mcu7t5v0__nand2_1 A1 A2 ZN VDD VSS
.ends

* Black-box entry subcircuit for gf180mcu_fd_sc_mcu7t5v0__nor2_1 abstract view
.subckt gf180mcu_fd_sc_mcu7t5v0__nor2_1 A1 A2 ZN VDD VSS
.ends

* Black-box entry subcircuit for gf180mcu_fd_sc_mcu7t5v0__aoi221_1 abstract view
.subckt gf180mcu_fd_sc_mcu7t5v0__aoi221_1 A1 A2 B1 B2 C ZN VDD VSS
.ends

* Black-box entry subcircuit for gf180mcu_fd_sc_mcu7t5v0__fillcap_16 abstract view
.subckt gf180mcu_fd_sc_mcu7t5v0__fillcap_16 VDD VSS
.ends

* Black-box entry subcircuit for gf180mcu_fd_sc_mcu7t5v0__inv_1 abstract view
.subckt gf180mcu_fd_sc_mcu7t5v0__inv_1 I ZN VDD VSS
.ends

* Black-box entry subcircuit for gf180mcu_fd_sc_mcu7t5v0__mux2_2 abstract view
.subckt gf180mcu_fd_sc_mcu7t5v0__mux2_2 I0 I1 S Z VDD VSS
.ends

* Black-box entry subcircuit for gf180mcu_fd_sc_mcu7t5v0__oai211_1 abstract view
.subckt gf180mcu_fd_sc_mcu7t5v0__oai211_1 A1 A2 B C ZN VDD VSS
.ends

* Black-box entry subcircuit for gf180mcu_fd_sc_mcu7t5v0__oai21_1 abstract view
.subckt gf180mcu_fd_sc_mcu7t5v0__oai21_1 A1 A2 B ZN VDD VSS
.ends

* Black-box entry subcircuit for gf180mcu_fd_sc_mcu7t5v0__endcap abstract view
.subckt gf180mcu_fd_sc_mcu7t5v0__endcap VDD VSS
.ends

* Black-box entry subcircuit for gf180mcu_fd_sc_mcu7t5v0__aoi21_1 abstract view
.subckt gf180mcu_fd_sc_mcu7t5v0__aoi21_1 A1 A2 B ZN VDD VSS
.ends

* Black-box entry subcircuit for gf180mcu_fd_sc_mcu7t5v0__xor2_1 abstract view
.subckt gf180mcu_fd_sc_mcu7t5v0__xor2_1 A1 A2 Z VDD VSS
.ends

* Black-box entry subcircuit for gf180mcu_fd_sc_mcu7t5v0__and2_1 abstract view
.subckt gf180mcu_fd_sc_mcu7t5v0__and2_1 A1 A2 Z VDD VSS
.ends

* Black-box entry subcircuit for gf180mcu_fd_sc_mcu7t5v0__tieh abstract view
.subckt gf180mcu_fd_sc_mcu7t5v0__tieh Z VDD VSS
.ends

* Black-box entry subcircuit for gf180mcu_fd_sc_mcu7t5v0__and4_1 abstract view
.subckt gf180mcu_fd_sc_mcu7t5v0__and4_1 A1 A2 A3 A4 Z VDD VSS
.ends

* Black-box entry subcircuit for gf180mcu_fd_sc_mcu7t5v0__clkinv_1 abstract view
.subckt gf180mcu_fd_sc_mcu7t5v0__clkinv_1 I ZN VDD VSS
.ends

* Black-box entry subcircuit for gf180mcu_fd_sc_mcu7t5v0__oai31_1 abstract view
.subckt gf180mcu_fd_sc_mcu7t5v0__oai31_1 A1 A2 A3 B ZN VDD VSS
.ends

* Black-box entry subcircuit for gf180mcu_fd_sc_mcu7t5v0__and3_1 abstract view
.subckt gf180mcu_fd_sc_mcu7t5v0__and3_1 A1 A2 A3 Z VDD VSS
.ends

* Black-box entry subcircuit for gf180mcu_fd_sc_mcu7t5v0__xnor2_1 abstract view
.subckt gf180mcu_fd_sc_mcu7t5v0__xnor2_1 A1 A2 ZN VDD VSS
.ends

* Black-box entry subcircuit for gf180mcu_fd_sc_mcu7t5v0__nand3_1 abstract view
.subckt gf180mcu_fd_sc_mcu7t5v0__nand3_1 A1 A2 A3 ZN VDD VSS
.ends

* Black-box entry subcircuit for gf180mcu_fd_sc_mcu7t5v0__aoi22_1 abstract view
.subckt gf180mcu_fd_sc_mcu7t5v0__aoi22_1 A1 A2 B1 B2 ZN VDD VSS
.ends

* Black-box entry subcircuit for gf180mcu_fd_sc_mcu7t5v0__or2_1 abstract view
.subckt gf180mcu_fd_sc_mcu7t5v0__or2_1 A1 A2 Z VDD VSS
.ends

* Black-box entry subcircuit for gf180mcu_fd_sc_mcu7t5v0__nor3_1 abstract view
.subckt gf180mcu_fd_sc_mcu7t5v0__nor3_1 A1 A2 A3 ZN VDD VSS
.ends

* Black-box entry subcircuit for gf180mcu_fd_sc_mcu7t5v0__nor4_1 abstract view
.subckt gf180mcu_fd_sc_mcu7t5v0__nor4_1 A1 A2 A3 A4 ZN VDD VSS
.ends

* Black-box entry subcircuit for gf180mcu_fd_sc_mcu7t5v0__aoi222_1 abstract view
.subckt gf180mcu_fd_sc_mcu7t5v0__aoi222_1 A1 A2 B1 B2 C1 C2 ZN VDD VSS
.ends

* Black-box entry subcircuit for gf180mcu_fd_sc_mcu7t5v0__oai22_1 abstract view
.subckt gf180mcu_fd_sc_mcu7t5v0__oai22_1 A1 A2 B1 B2 ZN VDD VSS
.ends

* Black-box entry subcircuit for gf180mcu_fd_sc_mcu7t5v0__nand4_1 abstract view
.subckt gf180mcu_fd_sc_mcu7t5v0__nand4_1 A1 A2 A3 A4 ZN VDD VSS
.ends

* Black-box entry subcircuit for gf180mcu_fd_sc_mcu7t5v0__or4_1 abstract view
.subckt gf180mcu_fd_sc_mcu7t5v0__or4_1 A1 A2 A3 A4 Z VDD VSS
.ends

* Black-box entry subcircuit for gf180mcu_fd_sc_mcu7t5v0__or3_1 abstract view
.subckt gf180mcu_fd_sc_mcu7t5v0__or3_1 A1 A2 A3 Z VDD VSS
.ends

* Black-box entry subcircuit for gf180mcu_fd_sc_mcu7t5v0__dffnq_1 abstract view
.subckt gf180mcu_fd_sc_mcu7t5v0__dffnq_1 D CLKN Q VDD VSS
.ends

* Black-box entry subcircuit for gf180mcu_fd_sc_mcu7t5v0__xor3_1 abstract view
.subckt gf180mcu_fd_sc_mcu7t5v0__xor3_1 A1 A2 A3 Z VDD VSS
.ends

* Black-box entry subcircuit for gf180mcu_fd_sc_mcu7t5v0__buf_4 abstract view
.subckt gf180mcu_fd_sc_mcu7t5v0__buf_4 I Z VDD VSS
.ends

* Black-box entry subcircuit for gf180mcu_fd_ip_sram__sram256x8m8wm1 abstract view
.subckt gf180mcu_fd_ip_sram__sram256x8m8wm1 A[0] A[1] A[2] A[3] A[4] A[5] A[6] A[7]
+ CEN CLK D[0] D[1] D[2] D[3] D[4] D[5] D[6] D[7] GWEN Q[0] Q[1] Q[2] Q[3] Q[4] Q[5]
+ Q[6] Q[7] WEN[0] WEN[1] WEN[2] WEN[3] WEN[4] WEN[5] WEN[6] WEN[7] VDD VSS
.ends

* Black-box entry subcircuit for gf180mcu_fd_sc_mcu7t5v0__clkbuf_1 abstract view
.subckt gf180mcu_fd_sc_mcu7t5v0__clkbuf_1 I Z VDD VSS
.ends

* Black-box entry subcircuit for gf180mcu_fd_sc_mcu7t5v0__buf_2 abstract view
.subckt gf180mcu_fd_sc_mcu7t5v0__buf_2 I Z VDD VSS
.ends

* Black-box entry subcircuit for gf180mcu_fd_sc_mcu7t5v0__mux4_1 abstract view
.subckt gf180mcu_fd_sc_mcu7t5v0__mux4_1 I0 I1 I2 I3 S0 S1 Z VDD VSS
.ends

* Black-box entry subcircuit for gf180mcu_fd_sc_mcu7t5v0__oai221_1 abstract view
.subckt gf180mcu_fd_sc_mcu7t5v0__oai221_1 A1 A2 B1 B2 C ZN VDD VSS
.ends

* Black-box entry subcircuit for gf180mcu_fd_sc_mcu7t5v0__oai222_1 abstract view
.subckt gf180mcu_fd_sc_mcu7t5v0__oai222_1 A1 A2 B1 B2 C1 C2 ZN VDD VSS
.ends

.subckt serv_0 io_in[0] io_in[1] io_in[2] io_in[3] io_in[4] io_oeb[0] io_oeb[1] io_oeb[2]
+ io_oeb[3] io_oeb[4] io_out[0] io_out[1] io_out[2] io_out[3] io_out[4] vdd vss
XFILLER_95_895 vdd vss gf180mcu_fd_sc_mcu7t5v0__fillcap_4
XFILLER_28_929 vdd vss gf180mcu_fd_sc_mcu7t5v0__fill_2
X_2106_ _0354_ _0458_ _0448_ _0367_ _0459_ vdd vss gf180mcu_fd_sc_mcu7t5v0__aoi211_1
XFILLER_78_1150 vdd vss gf180mcu_fd_sc_mcu7t5v0__fillcap_8
XFILLER_78_1161 vdd vss gf180mcu_fd_sc_mcu7t5v0__fillcap_32
X_2037_ _0392_ _0397_ vdd vss gf180mcu_fd_sc_mcu7t5v0__buf_1
XFILLER_39_1112 vdd vss gf180mcu_fd_sc_mcu7t5v0__fill_1
XFILLER_39_1134 vdd vss gf180mcu_fd_sc_mcu7t5v0__fill_2
XFILLER_39_1156 vdd vss gf180mcu_fd_sc_mcu7t5v0__fill_1
XANTENNA_u_scanchain_local.scan_flop\[45\]_SE io_in[3] vdd vss gf180mcu_fd_sc_mcu7t5v0__antenna
XFILLER_10_306 vdd vss gf180mcu_fd_sc_mcu7t5v0__fill_2
X_2939_ _2939_/ZN vdd vss gf180mcu_fd_sc_mcu7t5v0__tiel
XANTENNA__2006__I0 u_arbiter.i_wb_cpu_rdt\[1\] vdd vss gf180mcu_fd_sc_mcu7t5v0__antenna
XFILLER_102_1192 vdd vss gf180mcu_fd_sc_mcu7t5v0__fillcap_4
XFILLER_2_527 vdd vss gf180mcu_fd_sc_mcu7t5v0__fillcap_4
XFILLER_117_66 vdd vss gf180mcu_fd_sc_mcu7t5v0__fillcap_4
XFILLER_120_937 vdd vss gf180mcu_fd_sc_mcu7t5v0__fillcap_64
XFILLER_19_907 vdd vss gf180mcu_fd_sc_mcu7t5v0__fill_1
XFILLER_2_1221 vdd vss gf180mcu_fd_sc_mcu7t5v0__fill_2
XTAP_1800 vdd vss gf180mcu_fd_sc_mcu7t5v0__filltie
XFILLER_27_973 vdd vss gf180mcu_fd_sc_mcu7t5v0__fill_2
XTAP_1811 vdd vss gf180mcu_fd_sc_mcu7t5v0__filltie
XFILLER_54_792 vdd vss gf180mcu_fd_sc_mcu7t5v0__fill_1
XTAP_1833 vdd vss gf180mcu_fd_sc_mcu7t5v0__filltie
XTAP_1822 vdd vss gf180mcu_fd_sc_mcu7t5v0__filltie
XFILLER_18_1218 vdd vss gf180mcu_fd_sc_mcu7t5v0__fill_1
XTAP_1866 vdd vss gf180mcu_fd_sc_mcu7t5v0__filltie
XTAP_1844 vdd vss gf180mcu_fd_sc_mcu7t5v0__filltie
XFILLER_92_1147 vdd vss gf180mcu_fd_sc_mcu7t5v0__fill_1
XTAP_1855 vdd vss gf180mcu_fd_sc_mcu7t5v0__filltie
XANTENNA__2084__B _0399_ vdd vss gf180mcu_fd_sc_mcu7t5v0__antenna
XTAP_1899 vdd vss gf180mcu_fd_sc_mcu7t5v0__filltie
XTAP_1877 vdd vss gf180mcu_fd_sc_mcu7t5v0__filltie
XFILLER_92_1169 vdd vss gf180mcu_fd_sc_mcu7t5v0__fill_1
XFILLER_42_976 vdd vss gf180mcu_fd_sc_mcu7t5v0__fillcap_4
XTAP_1888 vdd vss gf180mcu_fd_sc_mcu7t5v0__filltie
XANTENNA__1996__A2 _0352_ vdd vss gf180mcu_fd_sc_mcu7t5v0__antenna
XFILLER_9_137 vdd vss gf180mcu_fd_sc_mcu7t5v0__fillcap_4
XFILLER_6_800 vdd vss gf180mcu_fd_sc_mcu7t5v0__fill_2
XANTENNA__1748__A2 _0026_ vdd vss gf180mcu_fd_sc_mcu7t5v0__antenna
XFILLER_6_833 vdd vss gf180mcu_fd_sc_mcu7t5v0__fill_2
XFILLER_138_1008 vdd vss gf180mcu_fd_sc_mcu7t5v0__fillcap_8
XFILLER_5_354 vdd vss gf180mcu_fd_sc_mcu7t5v0__fill_1
Xu_scanchain_local.scan_flop\[34\] u_arbiter.i_wb_cpu_rdt\[31\] io_in[3] u_arbiter.i_wb_cpu_dbus_dat\[28\]
+ u_scanchain_local.clk u_scanchain_local.module_data_in\[34\] vdd vss gf180mcu_fd_sc_mcu7t5v0__sdffq_1
XFILLER_64_1216 vdd vss gf180mcu_fd_sc_mcu7t5v0__fill_2
XANTENNA__1920__A2 _0286_ vdd vss gf180mcu_fd_sc_mcu7t5v0__antenna
XANTENNA__2259__B _0597_ vdd vss gf180mcu_fd_sc_mcu7t5v0__antenna
XFILLER_77_884 vdd vss gf180mcu_fd_sc_mcu7t5v0__fill_2
XFILLER_67_70 vdd vss gf180mcu_fd_sc_mcu7t5v0__fill_1
XFILLER_114_1096 vdd vss gf180mcu_fd_sc_mcu7t5v0__fill_2
XANTENNA_u_scanchain_local.scan_flop\[68\]_SE io_in[3] vdd vss gf180mcu_fd_sc_mcu7t5v0__antenna
XFILLER_18_940 vdd vss gf180mcu_fd_sc_mcu7t5v0__fillcap_4
XFILLER_33_932 vdd vss gf180mcu_fd_sc_mcu7t5v0__fill_2
XFILLER_33_943 vdd vss gf180mcu_fd_sc_mcu7t5v0__fill_2
XANTENNA__1436__A1 _0894_ vdd vss gf180mcu_fd_sc_mcu7t5v0__antenna
XFILLER_60_795 vdd vss gf180mcu_fd_sc_mcu7t5v0__fill_1
XFILLER_80_2 vdd vss gf180mcu_fd_sc_mcu7t5v0__fillcap_32
XFILLER_125_1181 vdd vss gf180mcu_fd_sc_mcu7t5v0__fill_2
XANTENNA__1739__A2 _0026_ vdd vss gf180mcu_fd_sc_mcu7t5v0__antenna
XFILLER_34_1086 vdd vss gf180mcu_fd_sc_mcu7t5v0__fill_2
X_2724_ _0113_ io_in[4] u_arbiter.i_wb_cpu_dbus_adr\[2\] vdd vss gf180mcu_fd_sc_mcu7t5v0__dffq_1
XFILLER_9_682 vdd vss gf180mcu_fd_sc_mcu7t5v0__fill_2
XFILLER_69_1138 vdd vss gf180mcu_fd_sc_mcu7t5v0__fill_2
X_2655_ _0044_ io_in[4] u_cpu.cpu.state.init_done vdd vss gf180mcu_fd_sc_mcu7t5v0__dffq_1
X_1606_ _1029_ _1058_ _1059_ vdd vss gf180mcu_fd_sc_mcu7t5v0__nand2_1
XANTENNA__2164__A2 _0505_ vdd vss gf180mcu_fd_sc_mcu7t5v0__antenna
X_2586_ _0822_ _0873_ _0823_ vdd vss gf180mcu_fd_sc_mcu7t5v0__nor2_1
XFILLER_102_937 vdd vss gf180mcu_fd_sc_mcu7t5v0__fillcap_64
X_1537_ u_arbiter.i_wb_cpu_dbus_adr\[30\] _0926_ _0995_ vdd vss gf180mcu_fd_sc_mcu7t5v0__nand2_1
XFILLER_45_1171 vdd vss gf180mcu_fd_sc_mcu7t5v0__fill_2
X_1468_ u_arbiter.i_wb_cpu_dbus_adr\[13\] _0926_ _0943_ vdd vss gf180mcu_fd_sc_mcu7t5v0__nand2_1
X_1399_ u_cpu.cpu.csr_imm _0851_ _0876_ u_cpu.cpu.immdec.imm24_20\[0\] _0888_ _0889_
+ vdd vss gf180mcu_fd_sc_mcu7t5v0__aoi221_1
XFILLER_76_1109 vdd vss gf180mcu_fd_sc_mcu7t5v0__fill_2
XTAP_1129 vdd vss gf180mcu_fd_sc_mcu7t5v0__filltie
XTAP_1118 vdd vss gf180mcu_fd_sc_mcu7t5v0__filltie
XFILLER_36_781 vdd vss gf180mcu_fd_sc_mcu7t5v0__fill_2
XTAP_1107 vdd vss gf180mcu_fd_sc_mcu7t5v0__filltie
XFILLER_36_792 vdd vss gf180mcu_fd_sc_mcu7t5v0__fill_1
XFILLER_24_954 vdd vss gf180mcu_fd_sc_mcu7t5v0__fill_2
XFILLER_11_637 vdd vss gf180mcu_fd_sc_mcu7t5v0__fill_2
XFILLER_104_1221 vdd vss gf180mcu_fd_sc_mcu7t5v0__fill_2
XFILLER_91_1191 vdd vss gf180mcu_fd_sc_mcu7t5v0__fillcap_16
XFILLER_13_1115 vdd vss gf180mcu_fd_sc_mcu7t5v0__fill_1
XFILLER_13_1126 vdd vss gf180mcu_fd_sc_mcu7t5v0__fill_2
XFILLER_3_836 vdd vss gf180mcu_fd_sc_mcu7t5v0__fill_2
XFILLER_3_858 vdd vss gf180mcu_fd_sc_mcu7t5v0__fill_2
XANTENNA__1902__A2 _0257_ vdd vss gf180mcu_fd_sc_mcu7t5v0__antenna
XFILLER_24_1200 vdd vss gf180mcu_fd_sc_mcu7t5v0__fill_2
XFILLER_101_970 vdd vss gf180mcu_fd_sc_mcu7t5v0__fill_1
XFILLER_59_873 vdd vss gf180mcu_fd_sc_mcu7t5v0__fill_2
XFILLER_111_1214 vdd vss gf180mcu_fd_sc_mcu7t5v0__fillcap_8
XFILLER_74_876 vdd vss gf180mcu_fd_sc_mcu7t5v0__fill_2
XANTENNA__2672__CLK io_in[4] vdd vss gf180mcu_fd_sc_mcu7t5v0__antenna
XFILLER_37_73 vdd vss gf180mcu_fd_sc_mcu7t5v0__fillcap_32
XFILLER_2_1040 vdd vss gf180mcu_fd_sc_mcu7t5v0__fillcap_32
XFILLER_74_887 vdd vss gf180mcu_fd_sc_mcu7t5v0__fill_2
XTAP_1641 vdd vss gf180mcu_fd_sc_mcu7t5v0__filltie
XTAP_1630 vdd vss gf180mcu_fd_sc_mcu7t5v0__filltie
XANTENNA__1418__A1 _0892_ vdd vss gf180mcu_fd_sc_mcu7t5v0__antenna
XFILLER_15_932 vdd vss gf180mcu_fd_sc_mcu7t5v0__fillcap_4
XTAP_1674 vdd vss gf180mcu_fd_sc_mcu7t5v0__filltie
XTAP_1685 vdd vss gf180mcu_fd_sc_mcu7t5v0__filltie
XTAP_1663 vdd vss gf180mcu_fd_sc_mcu7t5v0__filltie
XTAP_1652 vdd vss gf180mcu_fd_sc_mcu7t5v0__filltie
XANTENNA__1969__A2 _0282_ vdd vss gf180mcu_fd_sc_mcu7t5v0__antenna
XFILLER_42_762 vdd vss gf180mcu_fd_sc_mcu7t5v0__fill_1
XANTENNA__2091__A1 _0854_ vdd vss gf180mcu_fd_sc_mcu7t5v0__antenna
XFILLER_30_913 vdd vss gf180mcu_fd_sc_mcu7t5v0__fill_2
XTAP_1696 vdd vss gf180mcu_fd_sc_mcu7t5v0__filltie
XFILLER_42_795 vdd vss gf180mcu_fd_sc_mcu7t5v0__fill_1
XFILLER_18_1048 vdd vss gf180mcu_fd_sc_mcu7t5v0__fill_2
XFILLER_30_968 vdd vss gf180mcu_fd_sc_mcu7t5v0__fill_2
XANTENNA_u_scanchain_local.scan_flop\[2\]_CLK u_scanchain_local.clk vdd vss gf180mcu_fd_sc_mcu7t5v0__antenna
XFILLER_142_314 vdd vss gf180mcu_fd_sc_mcu7t5v0__fillcap_4
X_2440_ _0728_ _0150_ vdd vss gf180mcu_fd_sc_mcu7t5v0__inv_1
XFILLER_97_902 vdd vss gf180mcu_fd_sc_mcu7t5v0__fillcap_64
XFILLER_29_1122 vdd vss gf180mcu_fd_sc_mcu7t5v0__fill_2
XFILLER_29_1111 vdd vss gf180mcu_fd_sc_mcu7t5v0__fill_2
XANTENNA__2146__A2 _1005_ vdd vss gf180mcu_fd_sc_mcu7t5v0__antenna
X_2371_ u_arbiter.i_wb_cpu_dbus_adr\[11\] u_arbiter.i_wb_cpu_dbus_adr\[12\] _0678_
+ _0688_ vdd vss gf180mcu_fd_sc_mcu7t5v0__mux2_2
XFILLER_116_1147 vdd vss gf180mcu_fd_sc_mcu7t5v0__fill_1
XFILLER_64_1079 vdd vss gf180mcu_fd_sc_mcu7t5v0__fill_1
XFILLER_29_1199 vdd vss gf180mcu_fd_sc_mcu7t5v0__fill_1
XFILLER_65_898 vdd vss gf180mcu_fd_sc_mcu7t5v0__fill_2
XFILLER_65_887 vdd vss gf180mcu_fd_sc_mcu7t5v0__fill_2
XANTENNA__1409__A1 u_arbiter.i_wb_cpu_ibus_adr\[1\] vdd vss gf180mcu_fd_sc_mcu7t5v0__antenna
XFILLER_18_792 vdd vss gf180mcu_fd_sc_mcu7t5v0__fill_1
XANTENNA__2082__A1 _0343_ vdd vss gf180mcu_fd_sc_mcu7t5v0__antenna
XFILLER_21_902 vdd vss gf180mcu_fd_sc_mcu7t5v0__fill_1
XFILLER_75_1186 vdd vss gf180mcu_fd_sc_mcu7t5v0__fill_1
XFILLER_33_784 vdd vss gf180mcu_fd_sc_mcu7t5v0__fill_2
XFILLER_21_968 vdd vss gf180mcu_fd_sc_mcu7t5v0__fill_2
XFILLER_134_815 vdd vss gf180mcu_fd_sc_mcu7t5v0__fill_1
X_2707_ _0096_ io_in[4] u_cpu.cpu.immdec.imm30_25\[2\] vdd vss gf180mcu_fd_sc_mcu7t5v0__dffq_1
XANTENNA__2137__A2 _0388_ vdd vss gf180mcu_fd_sc_mcu7t5v0__antenna
X_2638_ _0002_ io_in[4] u_cpu.rf_ram_if.rdata0\[2\] vdd vss gf180mcu_fd_sc_mcu7t5v0__dffq_1
XFILLER_12_1192 vdd vss gf180mcu_fd_sc_mcu7t5v0__fill_1
X_2569_ u_arbiter.i_wb_cpu_rdt\[28\] u_cpu.cpu.genblk1.align.ibus_rdt_concat\[12\]
+ _0799_ _0812_ vdd vss gf180mcu_fd_sc_mcu7t5v0__mux2_2
XANTENNA__1896__B2 _1202_ vdd vss gf180mcu_fd_sc_mcu7t5v0__antenna
XANTENNA__1896__A1 u_arbiter.i_wb_cpu_dbus_dat\[5\] vdd vss gf180mcu_fd_sc_mcu7t5v0__antenna
XANTENNA__2695__CLK io_in[4] vdd vss gf180mcu_fd_sc_mcu7t5v0__antenna
XFILLER_114_34 vdd vss gf180mcu_fd_sc_mcu7t5v0__fill_1
XFILLER_56_832 vdd vss gf180mcu_fd_sc_mcu7t5v0__fill_2
XFILLER_56_887 vdd vss gf180mcu_fd_sc_mcu7t5v0__fillcap_4
XFILLER_54_1215 vdd vss gf180mcu_fd_sc_mcu7t5v0__fillcap_4
XFILLER_90_37 vdd vss gf180mcu_fd_sc_mcu7t5v0__fillcap_64
XFILLER_24_773 vdd vss gf180mcu_fd_sc_mcu7t5v0__fill_2
XFILLER_24_795 vdd vss gf180mcu_fd_sc_mcu7t5v0__fill_1
XFILLER_128_108 vdd vss gf180mcu_fd_sc_mcu7t5v0__fill_2
XANTENNA__1820__A1 _0891_ vdd vss gf180mcu_fd_sc_mcu7t5v0__antenna
XFILLER_12_979 vdd vss gf180mcu_fd_sc_mcu7t5v0__fill_1
XANTENNA__1757__I _1016_ vdd vss gf180mcu_fd_sc_mcu7t5v0__antenna
XFILLER_128_2 vdd vss gf180mcu_fd_sc_mcu7t5v0__fillcap_32
XFILLER_17_1092 vdd vss gf180mcu_fd_sc_mcu7t5v0__fillcap_4
XFILLER_48_1008 vdd vss gf180mcu_fd_sc_mcu7t5v0__fill_1
XFILLER_79_902 vdd vss gf180mcu_fd_sc_mcu7t5v0__fillcap_64
XFILLER_48_1019 vdd vss gf180mcu_fd_sc_mcu7t5v0__fill_2
XANTENNA__2128__A2 _0433_ vdd vss gf180mcu_fd_sc_mcu7t5v0__antenna
XFILLER_140_818 vdd vss gf180mcu_fd_sc_mcu7t5v0__fillcap_64
XFILLER_61_1208 vdd vss gf180mcu_fd_sc_mcu7t5v0__fill_2
XANTENNA__1887__A1 u_arbiter.i_wb_cpu_dbus_dat\[4\] vdd vss gf180mcu_fd_sc_mcu7t5v0__antenna
XFILLER_2_176 vdd vss gf180mcu_fd_sc_mcu7t5v0__fill_1
XFILLER_4_1102 vdd vss gf180mcu_fd_sc_mcu7t5v0__fillcap_64
XFILLER_111_1044 vdd vss gf180mcu_fd_sc_mcu7t5v0__fillcap_64
XFILLER_47_854 vdd vss gf180mcu_fd_sc_mcu7t5v0__fill_2
XANTENNA__1639__A1 _0860_ vdd vss gf180mcu_fd_sc_mcu7t5v0__antenna
XFILLER_62_802 vdd vss gf180mcu_fd_sc_mcu7t5v0__fill_1
XFILLER_59_1115 vdd vss gf180mcu_fd_sc_mcu7t5v0__fill_1
XANTENNA__2300__A2 _0385_ vdd vss gf180mcu_fd_sc_mcu7t5v0__antenna
XFILLER_47_876 vdd vss gf180mcu_fd_sc_mcu7t5v0__fillcap_4
XFILLER_98_1197 vdd vss gf180mcu_fd_sc_mcu7t5v0__fill_2
XFILLER_62_857 vdd vss gf180mcu_fd_sc_mcu7t5v0__fillcap_4
XTAP_1460 vdd vss gf180mcu_fd_sc_mcu7t5v0__filltie
XTAP_1482 vdd vss gf180mcu_fd_sc_mcu7t5v0__filltie
XTAP_1493 vdd vss gf180mcu_fd_sc_mcu7t5v0__filltie
XTAP_1471 vdd vss gf180mcu_fd_sc_mcu7t5v0__filltie
X_1940_ u_arbiter.i_wb_cpu_dbus_dat\[22\] _0286_ _0313_ vdd vss gf180mcu_fd_sc_mcu7t5v0__nand2_1
XFILLER_15_795 vdd vss gf180mcu_fd_sc_mcu7t5v0__fill_2
XANTENNA__2064__A1 _0345_ vdd vss gf180mcu_fd_sc_mcu7t5v0__antenna
X_1871_ _0260_ _0262_ _1204_ _0263_ _0264_ vdd vss gf180mcu_fd_sc_mcu7t5v0__oai211_1
XANTENNA__1662__I1 u_cpu.rf_ram.data\[1\] vdd vss gf180mcu_fd_sc_mcu7t5v0__antenna
XFILLER_9_66 vdd vss gf180mcu_fd_sc_mcu7t5v0__fillcap_4
XANTENNA__1811__A1 _1193_ vdd vss gf180mcu_fd_sc_mcu7t5v0__antenna
XFILLER_31_1001 vdd vss gf180mcu_fd_sc_mcu7t5v0__fillcap_4
XFILLER_30_776 vdd vss gf180mcu_fd_sc_mcu7t5v0__fill_2
XFILLER_30_798 vdd vss gf180mcu_fd_sc_mcu7t5v0__fill_2
XFILLER_143_634 vdd vss gf180mcu_fd_sc_mcu7t5v0__fillcap_4
XFILLER_31_1078 vdd vss gf180mcu_fd_sc_mcu7t5v0__fill_2
XFILLER_7_983 vdd vss gf180mcu_fd_sc_mcu7t5v0__fill_2
XFILLER_116_859 vdd vss gf180mcu_fd_sc_mcu7t5v0__fillcap_4
X_2423_ _1163_ _0713_ _0717_ _0144_ vdd vss gf180mcu_fd_sc_mcu7t5v0__oai21_1
XFILLER_43_2 vdd vss gf180mcu_fd_sc_mcu7t5v0__fillcap_64
XFILLER_130_317 vdd vss gf180mcu_fd_sc_mcu7t5v0__fillcap_32
XANTENNA__1616__B u_arbiter.i_wb_cpu_ibus_adr\[0\] vdd vss gf180mcu_fd_sc_mcu7t5v0__antenna
X_2354_ _0679_ _0113_ vdd vss gf180mcu_fd_sc_mcu7t5v0__buf_1
XFILLER_9_1079 vdd vss gf180mcu_fd_sc_mcu7t5v0__fill_2
X_2285_ _0379_ _0433_ _0619_ vdd vss gf180mcu_fd_sc_mcu7t5v0__nor2_1
XFILLER_38_898 vdd vss gf180mcu_fd_sc_mcu7t5v0__fill_2
XFILLER_71_109 vdd vss gf180mcu_fd_sc_mcu7t5v0__fill_2
XANTENNA__2166__C _0381_ vdd vss gf180mcu_fd_sc_mcu7t5v0__antenna
XFILLER_12_209 vdd vss gf180mcu_fd_sc_mcu7t5v0__fill_1
XANTENNA__2055__A1 _0411_ vdd vss gf180mcu_fd_sc_mcu7t5v0__antenna
XFILLER_139_918 vdd vss gf180mcu_fd_sc_mcu7t5v0__fillcap_4
XFILLER_21_765 vdd vss gf180mcu_fd_sc_mcu7t5v0__fill_2
XANTENNA__1802__A1 _0856_ vdd vss gf180mcu_fd_sc_mcu7t5v0__antenna
XANTENNA__1577__I _0860_ vdd vss gf180mcu_fd_sc_mcu7t5v0__antenna
XFILLER_14_1221 vdd vss gf180mcu_fd_sc_mcu7t5v0__fill_2
XFILLER_133_144 vdd vss gf180mcu_fd_sc_mcu7t5v0__fillcap_64
XANTENNA__1869__A1 _0252_ vdd vss gf180mcu_fd_sc_mcu7t5v0__antenna
XFILLER_47_1041 vdd vss gf180mcu_fd_sc_mcu7t5v0__fill_1
XFILLER_88_787 vdd vss gf180mcu_fd_sc_mcu7t5v0__fillcap_4
XFILLER_76_927 vdd vss gf180mcu_fd_sc_mcu7t5v0__fill_2
XFILLER_47_1096 vdd vss gf180mcu_fd_sc_mcu7t5v0__fill_2
XANTENNA__2530__A2 _0379_ vdd vss gf180mcu_fd_sc_mcu7t5v0__antenna
XFILLER_125_66 vdd vss gf180mcu_fd_sc_mcu7t5v0__fillcap_4
XFILLER_76_949 vdd vss gf180mcu_fd_sc_mcu7t5v0__fill_1
XFILLER_29_810 vdd vss gf180mcu_fd_sc_mcu7t5v0__fill_2
XFILLER_134_1099 vdd vss gf180mcu_fd_sc_mcu7t5v0__fill_1
XANTENNA__2294__A1 _0397_ vdd vss gf180mcu_fd_sc_mcu7t5v0__antenna
XFILLER_29_898 vdd vss gf180mcu_fd_sc_mcu7t5v0__fill_2
XFILLER_44_846 vdd vss gf180mcu_fd_sc_mcu7t5v0__fill_2
XPHY_510 vdd vss gf180mcu_fd_sc_mcu7t5v0__endcap
XANTENNA__1688__S _0998_ vdd vss gf180mcu_fd_sc_mcu7t5v0__antenna
XFILLER_19_1110 vdd vss gf180mcu_fd_sc_mcu7t5v0__fill_2
XPHY_521 vdd vss gf180mcu_fd_sc_mcu7t5v0__endcap
XANTENNA__2710__CLK io_in[4] vdd vss gf180mcu_fd_sc_mcu7t5v0__antenna
XANTENNA__2046__A1 _0855_ vdd vss gf180mcu_fd_sc_mcu7t5v0__antenna
XANTENNA__2046__B2 _0405_ vdd vss gf180mcu_fd_sc_mcu7t5v0__antenna
XFILLER_54_1045 vdd vss gf180mcu_fd_sc_mcu7t5v0__fill_1
XFILLER_12_732 vdd vss gf180mcu_fd_sc_mcu7t5v0__fill_2
XFILLER_15_1018 vdd vss gf180mcu_fd_sc_mcu7t5v0__fill_1
XFILLER_89_1108 vdd vss gf180mcu_fd_sc_mcu7t5v0__fillcap_4
XFILLER_11_253 vdd vss gf180mcu_fd_sc_mcu7t5v0__fill_1
XFILLER_8_725 vdd vss gf180mcu_fd_sc_mcu7t5v0__fillcap_4
XFILLER_8_747 vdd vss gf180mcu_fd_sc_mcu7t5v0__fill_2
XFILLER_19_1198 vdd vss gf180mcu_fd_sc_mcu7t5v0__fill_2
XFILLER_11_286 vdd vss gf180mcu_fd_sc_mcu7t5v0__fill_1
XFILLER_7_279 vdd vss gf180mcu_fd_sc_mcu7t5v0__fillcap_4
XFILLER_4_953 vdd vss gf180mcu_fd_sc_mcu7t5v0__fill_2
XFILLER_4_975 vdd vss gf180mcu_fd_sc_mcu7t5v0__fill_2
XTAP_529 vdd vss gf180mcu_fd_sc_mcu7t5v0__filltie
XFILLER_3_496 vdd vss gf180mcu_fd_sc_mcu7t5v0__fill_1
XFILLER_65_1174 vdd vss gf180mcu_fd_sc_mcu7t5v0__fillcap_4
XANTENNA__2521__A2 _0382_ vdd vss gf180mcu_fd_sc_mcu7t5v0__antenna
XFILLER_121_895 vdd vss gf180mcu_fd_sc_mcu7t5v0__fillcap_4
XFILLER_113_1128 vdd vss gf180mcu_fd_sc_mcu7t5v0__fillcap_32
XFILLER_113_1117 vdd vss gf180mcu_fd_sc_mcu7t5v0__fill_1
XFILLER_26_1169 vdd vss gf180mcu_fd_sc_mcu7t5v0__fill_1
X_2070_ u_arbiter.i_wb_cpu_rdt\[5\] u_cpu.cpu.genblk1.align.ibus_rdt_concat\[5\] _0899_
+ _0427_ vdd vss gf180mcu_fd_sc_mcu7t5v0__mux2_2
XANTENNA__2285__A1 _0379_ vdd vss gf180mcu_fd_sc_mcu7t5v0__antenna
XFILLER_75_70 vdd vss gf180mcu_fd_sc_mcu7t5v0__fill_1
XFILLER_53_109 vdd vss gf180mcu_fd_sc_mcu7t5v0__fill_2
XFILLER_90_930 vdd vss gf180mcu_fd_sc_mcu7t5v0__fillcap_4
XFILLER_50_816 vdd vss gf180mcu_fd_sc_mcu7t5v0__fill_2
XFILLER_35_879 vdd vss gf180mcu_fd_sc_mcu7t5v0__fill_2
X_2972_ _2972_/ZN vdd vss gf180mcu_fd_sc_mcu7t5v0__tiel
XFILLER_72_1123 vdd vss gf180mcu_fd_sc_mcu7t5v0__fill_1
XFILLER_50_827 vdd vss gf180mcu_fd_sc_mcu7t5v0__fill_2
XTAP_1290 vdd vss gf180mcu_fd_sc_mcu7t5v0__filltie
XFILLER_72_1167 vdd vss gf180mcu_fd_sc_mcu7t5v0__fill_2
X_1923_ u_arbiter.i_wb_cpu_dbus_dat\[16\] _0286_ _0302_ vdd vss gf180mcu_fd_sc_mcu7t5v0__nand2_1
XFILLER_33_1107 vdd vss gf180mcu_fd_sc_mcu7t5v0__fill_2
XANTENNA__2588__A2 _0818_ vdd vss gf180mcu_fd_sc_mcu7t5v0__antenna
XFILLER_129_973 vdd vss gf180mcu_fd_sc_mcu7t5v0__fillcap_8
X_1854_ _0891_ _0221_ _0248_ _0044_ vdd vss gf180mcu_fd_sc_mcu7t5v0__oai21_1
X_1785_ _0897_ _1189_ vdd vss gf180mcu_fd_sc_mcu7t5v0__inv_1
X_2406_ _0705_ _0139_ vdd vss gf180mcu_fd_sc_mcu7t5v0__buf_1
XFILLER_131_1206 vdd vss gf180mcu_fd_sc_mcu7t5v0__fill_1
XFILLER_131_1217 vdd vss gf180mcu_fd_sc_mcu7t5v0__fillcap_4
XFILLER_58_949 vdd vss gf180mcu_fd_sc_mcu7t5v0__fill_2
X_2337_ _0858_ u_cpu.cpu.immdec.imm24_20\[0\] _0667_ vdd vss gf180mcu_fd_sc_mcu7t5v0__nand2_1
XFILLER_73_908 vdd vss gf180mcu_fd_sc_mcu7t5v0__fill_2
X_2268_ _1029_ _0605_ _1192_ _0606_ vdd vss gf180mcu_fd_sc_mcu7t5v0__aoi21_1
XFILLER_26_802 vdd vss gf180mcu_fd_sc_mcu7t5v0__fill_2
X_2199_ _0535_ _0540_ _0543_ _0094_ vdd vss gf180mcu_fd_sc_mcu7t5v0__oai21_1
XANTENNA__2733__CLK io_in[4] vdd vss gf180mcu_fd_sc_mcu7t5v0__antenna
XFILLER_90_1223 vdd vss gf180mcu_fd_sc_mcu7t5v0__fill_1
XFILLER_129_1179 vdd vss gf180mcu_fd_sc_mcu7t5v0__fillcap_4
XFILLER_41_838 vdd vss gf180mcu_fd_sc_mcu7t5v0__fillcap_4
XANTENNA__2028__B2 _0354_ vdd vss gf180mcu_fd_sc_mcu7t5v0__antenna
XANTENNA__2028__A1 _0369_ vdd vss gf180mcu_fd_sc_mcu7t5v0__antenna
XANTENNA__2579__A2 _0873_ vdd vss gf180mcu_fd_sc_mcu7t5v0__antenna
XFILLER_51_1218 vdd vss gf180mcu_fd_sc_mcu7t5v0__fill_2
XFILLER_138_247 vdd vss gf180mcu_fd_sc_mcu7t5v0__fill_1
XFILLER_84_1005 vdd vss gf180mcu_fd_sc_mcu7t5v0__fill_1
XFILLER_49_1103 vdd vss gf180mcu_fd_sc_mcu7t5v0__fill_2
XANTENNA__2200__A1 _1192_ vdd vss gf180mcu_fd_sc_mcu7t5v0__antenna
XFILLER_0_422 vdd vss gf180mcu_fd_sc_mcu7t5v0__fillcap_32
XFILLER_49_905 vdd vss gf180mcu_fd_sc_mcu7t5v0__fillcap_4
XFILLER_103_895 vdd vss gf180mcu_fd_sc_mcu7t5v0__fillcap_4
XANTENNA__2503__A2 _0334_ vdd vss gf180mcu_fd_sc_mcu7t5v0__antenna
XFILLER_21_1000 vdd vss gf180mcu_fd_sc_mcu7t5v0__fill_2
XFILLER_21_1011 vdd vss gf180mcu_fd_sc_mcu7t5v0__fill_2
XFILLER_112_1150 vdd vss gf180mcu_fd_sc_mcu7t5v0__fill_1
XFILLER_60_1093 vdd vss gf180mcu_fd_sc_mcu7t5v0__fillcap_4
XFILLER_60_1082 vdd vss gf180mcu_fd_sc_mcu7t5v0__fill_2
XFILLER_60_1071 vdd vss gf180mcu_fd_sc_mcu7t5v0__fill_2
XFILLER_35_109 vdd vss gf180mcu_fd_sc_mcu7t5v0__fill_2
XFILLER_21_1044 vdd vss gf180mcu_fd_sc_mcu7t5v0__fill_1
XFILLER_95_1123 vdd vss gf180mcu_fd_sc_mcu7t5v0__fillcap_4
XFILLER_95_1112 vdd vss gf180mcu_fd_sc_mcu7t5v0__fill_1
XFILLER_72_930 vdd vss gf180mcu_fd_sc_mcu7t5v0__fill_2
XFILLER_1_1138 vdd vss gf180mcu_fd_sc_mcu7t5v0__fillcap_64
XFILLER_17_846 vdd vss gf180mcu_fd_sc_mcu7t5v0__fill_2
XFILLER_17_857 vdd vss gf180mcu_fd_sc_mcu7t5v0__fillcap_4
XFILLER_21_1055 vdd vss gf180mcu_fd_sc_mcu7t5v0__fill_2
XFILLER_72_952 vdd vss gf180mcu_fd_sc_mcu7t5v0__fill_2
XFILLER_45_73 vdd vss gf180mcu_fd_sc_mcu7t5v0__fillcap_32
XFILLER_17_868 vdd vss gf180mcu_fd_sc_mcu7t5v0__fill_2
XFILLER_21_1099 vdd vss gf180mcu_fd_sc_mcu7t5v0__fill_2
XPHY_340 vdd vss gf180mcu_fd_sc_mcu7t5v0__endcap
XPHY_351 vdd vss gf180mcu_fd_sc_mcu7t5v0__endcap
XPHY_373 vdd vss gf180mcu_fd_sc_mcu7t5v0__endcap
XPHY_384 vdd vss gf180mcu_fd_sc_mcu7t5v0__endcap
Xu_scanchain_local.scan_flop\[64\] u_scanchain_local.module_data_in\[63\] io_in[3]
+ u_arbiter.o_wb_cpu_adr\[26\] u_scanchain_local.clk u_scanchain_local.module_data_in\[64\]
+ vdd vss gf180mcu_fd_sc_mcu7t5v0__sdffq_1
XPHY_362 vdd vss gf180mcu_fd_sc_mcu7t5v0__endcap
XFILLER_12_562 vdd vss gf180mcu_fd_sc_mcu7t5v0__fill_1
XPHY_395 vdd vss gf180mcu_fd_sc_mcu7t5v0__endcap
XFILLER_32_1140 vdd vss gf180mcu_fd_sc_mcu7t5v0__fill_2
XFILLER_6_34 vdd vss gf180mcu_fd_sc_mcu7t5v0__fill_1
X_1570_ _1003_ _1024_ _1025_ vdd vss gf180mcu_fd_sc_mcu7t5v0__xor2_1
XFILLER_28_1209 vdd vss gf180mcu_fd_sc_mcu7t5v0__fill_2
XFILLER_4_783 vdd vss gf180mcu_fd_sc_mcu7t5v0__fillcap_4
XFILLER_140_456 vdd vss gf180mcu_fd_sc_mcu7t5v0__fillcap_4
XANTENNA__2756__CLK io_in[4] vdd vss gf180mcu_fd_sc_mcu7t5v0__antenna
X_2122_ _0397_ _0426_ _0401_ _0465_ _0379_ _0474_ vdd vss gf180mcu_fd_sc_mcu7t5v0__aoi221_1
XFILLER_6_1038 vdd vss gf180mcu_fd_sc_mcu7t5v0__fill_2
XFILLER_67_779 vdd vss gf180mcu_fd_sc_mcu7t5v0__fillcap_4
XFILLER_55_919 vdd vss gf180mcu_fd_sc_mcu7t5v0__fill_2
XFILLER_63_941 vdd vss gf180mcu_fd_sc_mcu7t5v0__fillcap_4
X_2053_ _0898_ u_cpu.cpu.genblk1.align.ibus_rdt_concat\[10\] _0412_ vdd vss gf180mcu_fd_sc_mcu7t5v0__and2_1
XFILLER_74_1218 vdd vss gf180mcu_fd_sc_mcu7t5v0__fill_1
XFILLER_90_760 vdd vss gf180mcu_fd_sc_mcu7t5v0__fillcap_32
XFILLER_63_963 vdd vss gf180mcu_fd_sc_mcu7t5v0__fill_2
XANTENNA__2217__S _0900_ vdd vss gf180mcu_fd_sc_mcu7t5v0__antenna
XFILLER_37_1051 vdd vss gf180mcu_fd_sc_mcu7t5v0__fillcap_4
XFILLER_124_1032 vdd vss gf180mcu_fd_sc_mcu7t5v0__fillcap_4
X_2955_ _2955_/ZN vdd vss gf180mcu_fd_sc_mcu7t5v0__tiel
XFILLER_124_1076 vdd vss gf180mcu_fd_sc_mcu7t5v0__fill_1
X_2886_ _2886_/Z vdd vss gf180mcu_fd_sc_mcu7t5v0__tieh
X_1906_ _0290_ _0291_ _0053_ vdd vss gf180mcu_fd_sc_mcu7t5v0__nand2_1
X_1837_ u_cpu.cpu.state.genblk1.misalign_trap_sync_r _0228_ _0235_ vdd vss gf180mcu_fd_sc_mcu7t5v0__nand2_1
X_1768_ _1078_ _1076_ _1179_ vdd vss gf180mcu_fd_sc_mcu7t5v0__nand2_1
XFILLER_132_957 vdd vss gf180mcu_fd_sc_mcu7t5v0__fill_1
XANTENNA__1941__B1 _0258_ vdd vss gf180mcu_fd_sc_mcu7t5v0__antenna
XFILLER_1_208 vdd vss gf180mcu_fd_sc_mcu7t5v0__fillcap_4
XFILLER_143_283 vdd vss gf180mcu_fd_sc_mcu7t5v0__fill_1
X_1699_ _1132_ _0008_ vdd vss gf180mcu_fd_sc_mcu7t5v0__buf_1
XFILLER_44_1011 vdd vss gf180mcu_fd_sc_mcu7t5v0__fillcap_4
XTAP_860 vdd vss gf180mcu_fd_sc_mcu7t5v0__filltie
XTAP_871 vdd vss gf180mcu_fd_sc_mcu7t5v0__filltie
XFILLER_131_1036 vdd vss gf180mcu_fd_sc_mcu7t5v0__fillcap_16
XTAP_882 vdd vss gf180mcu_fd_sc_mcu7t5v0__filltie
XTAP_893 vdd vss gf180mcu_fd_sc_mcu7t5v0__filltie
XFILLER_17_109 vdd vss gf180mcu_fd_sc_mcu7t5v0__fill_2
XANTENNA__2249__A1 _0339_ vdd vss gf180mcu_fd_sc_mcu7t5v0__antenna
XFILLER_122_34 vdd vss gf180mcu_fd_sc_mcu7t5v0__fill_1
XFILLER_81_760 vdd vss gf180mcu_fd_sc_mcu7t5v0__fill_1
XANTENNA__2127__S _0899_ vdd vss gf180mcu_fd_sc_mcu7t5v0__antenna
XFILLER_54_996 vdd vss gf180mcu_fd_sc_mcu7t5v0__fill_2