* NGSPICE file created from serv_1.ext - technology: gf180mcuC

* Black-box entry subcircuit for gf180mcu_fd_sc_mcu7t5v0__fill_2 abstract view
.subckt gf180mcu_fd_sc_mcu7t5v0__fill_2 VDD VSS
.ends

* Black-box entry subcircuit for gf180mcu_fd_sc_mcu7t5v0__fill_1 abstract view
.subckt gf180mcu_fd_sc_mcu7t5v0__fill_1 VDD VSS
.ends

* Black-box entry subcircuit for gf180mcu_fd_sc_mcu7t5v0__and2_1 abstract view
.subckt gf180mcu_fd_sc_mcu7t5v0__and2_1 A1 A2 Z VDD VSS
.ends

* Black-box entry subcircuit for gf180mcu_fd_sc_mcu7t5v0__antenna abstract view
.subckt gf180mcu_fd_sc_mcu7t5v0__antenna I VDD VSS
.ends

* Black-box entry subcircuit for gf180mcu_fd_sc_mcu7t5v0__buf_1 abstract view
.subckt gf180mcu_fd_sc_mcu7t5v0__buf_1 I Z VDD VSS
.ends

* Black-box entry subcircuit for gf180mcu_fd_sc_mcu7t5v0__mux4_1 abstract view
.subckt gf180mcu_fd_sc_mcu7t5v0__mux4_1 I0 I1 I2 I3 S0 S1 Z VDD VSS
.ends

* Black-box entry subcircuit for gf180mcu_fd_sc_mcu7t5v0__fillcap_4 abstract view
.subckt gf180mcu_fd_sc_mcu7t5v0__fillcap_4 VDD VSS
.ends

* Black-box entry subcircuit for gf180mcu_fd_sc_mcu7t5v0__nand4_4 abstract view
.subckt gf180mcu_fd_sc_mcu7t5v0__nand4_4 A1 A2 A3 A4 ZN VDD VSS
.ends

* Black-box entry subcircuit for gf180mcu_fd_sc_mcu7t5v0__nand2_2 abstract view
.subckt gf180mcu_fd_sc_mcu7t5v0__nand2_2 A1 A2 ZN VDD VSS
.ends

* Black-box entry subcircuit for gf180mcu_fd_sc_mcu7t5v0__fillcap_8 abstract view
.subckt gf180mcu_fd_sc_mcu7t5v0__fillcap_8 VDD VSS
.ends

* Black-box entry subcircuit for gf180mcu_fd_sc_mcu7t5v0__aoi21_1 abstract view
.subckt gf180mcu_fd_sc_mcu7t5v0__aoi21_1 A1 A2 B ZN VDD VSS
.ends

* Black-box entry subcircuit for gf180mcu_fd_sc_mcu7t5v0__oai21_1 abstract view
.subckt gf180mcu_fd_sc_mcu7t5v0__oai21_1 A1 A2 B ZN VDD VSS
.ends

* Black-box entry subcircuit for gf180mcu_fd_sc_mcu7t5v0__nand2_1 abstract view
.subckt gf180mcu_fd_sc_mcu7t5v0__nand2_1 A1 A2 ZN VDD VSS
.ends

* Black-box entry subcircuit for gf180mcu_fd_sc_mcu7t5v0__aoi22_1 abstract view
.subckt gf180mcu_fd_sc_mcu7t5v0__aoi22_1 A1 A2 B1 B2 ZN VDD VSS
.ends

* Black-box entry subcircuit for gf180mcu_fd_sc_mcu7t5v0__filltie abstract view
.subckt gf180mcu_fd_sc_mcu7t5v0__filltie VDD VSS
.ends

* Black-box entry subcircuit for gf180mcu_fd_sc_mcu7t5v0__dffq_1 abstract view
.subckt gf180mcu_fd_sc_mcu7t5v0__dffq_1 D CLK Q VDD VSS
.ends

* Black-box entry subcircuit for gf180mcu_fd_sc_mcu7t5v0__fillcap_16 abstract view
.subckt gf180mcu_fd_sc_mcu7t5v0__fillcap_16 VDD VSS
.ends

* Black-box entry subcircuit for gf180mcu_fd_sc_mcu7t5v0__fillcap_64 abstract view
.subckt gf180mcu_fd_sc_mcu7t5v0__fillcap_64 VDD VSS
.ends

* Black-box entry subcircuit for gf180mcu_fd_sc_mcu7t5v0__nor2_1 abstract view
.subckt gf180mcu_fd_sc_mcu7t5v0__nor2_1 A1 A2 ZN VDD VSS
.ends

* Black-box entry subcircuit for gf180mcu_fd_sc_mcu7t5v0__sdffq_1 abstract view
.subckt gf180mcu_fd_sc_mcu7t5v0__sdffq_1 D SE SI CLK Q VDD VSS
.ends

* Black-box entry subcircuit for gf180mcu_fd_sc_mcu7t5v0__oai22_1 abstract view
.subckt gf180mcu_fd_sc_mcu7t5v0__oai22_1 A1 A2 B1 B2 ZN VDD VSS
.ends

* Black-box entry subcircuit for gf180mcu_fd_sc_mcu7t5v0__nor4_4 abstract view
.subckt gf180mcu_fd_sc_mcu7t5v0__nor4_4 A1 A2 A3 A4 ZN VDD VSS
.ends

* Black-box entry subcircuit for gf180mcu_fd_sc_mcu7t5v0__dlyc_1 abstract view
.subckt gf180mcu_fd_sc_mcu7t5v0__dlyc_1 I Z VDD VSS
.ends

* Black-box entry subcircuit for gf180mcu_fd_sc_mcu7t5v0__dlyb_1 abstract view
.subckt gf180mcu_fd_sc_mcu7t5v0__dlyb_1 I Z VDD VSS
.ends

* Black-box entry subcircuit for gf180mcu_fd_sc_mcu7t5v0__or3_1 abstract view
.subckt gf180mcu_fd_sc_mcu7t5v0__or3_1 A1 A2 A3 Z VDD VSS
.ends

* Black-box entry subcircuit for gf180mcu_fd_sc_mcu7t5v0__aoi221_2 abstract view
.subckt gf180mcu_fd_sc_mcu7t5v0__aoi221_2 A1 A2 B1 B2 C ZN VDD VSS
.ends

* Black-box entry subcircuit for gf180mcu_fd_sc_mcu7t5v0__mux2_2 abstract view
.subckt gf180mcu_fd_sc_mcu7t5v0__mux2_2 I0 I1 S Z VDD VSS
.ends

* Black-box entry subcircuit for gf180mcu_fd_sc_mcu7t5v0__clkbuf_1 abstract view
.subckt gf180mcu_fd_sc_mcu7t5v0__clkbuf_1 I Z VDD VSS
.ends

* Black-box entry subcircuit for gf180mcu_fd_sc_mcu7t5v0__clkinv_1 abstract view
.subckt gf180mcu_fd_sc_mcu7t5v0__clkinv_1 I ZN VDD VSS
.ends

* Black-box entry subcircuit for gf180mcu_fd_sc_mcu7t5v0__oai221_2 abstract view
.subckt gf180mcu_fd_sc_mcu7t5v0__oai221_2 A1 A2 B1 B2 C ZN VDD VSS
.ends

* Black-box entry subcircuit for gf180mcu_fd_sc_mcu7t5v0__aoi21_2 abstract view
.subckt gf180mcu_fd_sc_mcu7t5v0__aoi21_2 A1 A2 B ZN VDD VSS
.ends

* Black-box entry subcircuit for gf180mcu_fd_sc_mcu7t5v0__or4_1 abstract view
.subckt gf180mcu_fd_sc_mcu7t5v0__or4_1 A1 A2 A3 A4 Z VDD VSS
.ends

* Black-box entry subcircuit for gf180mcu_fd_sc_mcu7t5v0__fillcap_32 abstract view
.subckt gf180mcu_fd_sc_mcu7t5v0__fillcap_32 VDD VSS
.ends

* Black-box entry subcircuit for gf180mcu_fd_sc_mcu7t5v0__tiel abstract view
.subckt gf180mcu_fd_sc_mcu7t5v0__tiel ZN VDD VSS
.ends

* Black-box entry subcircuit for gf180mcu_fd_sc_mcu7t5v0__oai211_1 abstract view
.subckt gf180mcu_fd_sc_mcu7t5v0__oai211_1 A1 A2 B C ZN VDD VSS
.ends

* Black-box entry subcircuit for gf180mcu_fd_sc_mcu7t5v0__clkbuf_2 abstract view
.subckt gf180mcu_fd_sc_mcu7t5v0__clkbuf_2 I Z VDD VSS
.ends

* Black-box entry subcircuit for gf180mcu_fd_sc_mcu7t5v0__aoi221_1 abstract view
.subckt gf180mcu_fd_sc_mcu7t5v0__aoi221_1 A1 A2 B1 B2 C ZN VDD VSS
.ends

* Black-box entry subcircuit for gf180mcu_fd_sc_mcu7t5v0__buf_2 abstract view
.subckt gf180mcu_fd_sc_mcu7t5v0__buf_2 I Z VDD VSS
.ends

* Black-box entry subcircuit for gf180mcu_fd_sc_mcu7t5v0__clkbuf_3 abstract view
.subckt gf180mcu_fd_sc_mcu7t5v0__clkbuf_3 I Z VDD VSS
.ends

* Black-box entry subcircuit for gf180mcu_fd_sc_mcu7t5v0__nand3_1 abstract view
.subckt gf180mcu_fd_sc_mcu7t5v0__nand3_1 A1 A2 A3 ZN VDD VSS
.ends

* Black-box entry subcircuit for gf180mcu_fd_sc_mcu7t5v0__endcap abstract view
.subckt gf180mcu_fd_sc_mcu7t5v0__endcap VDD VSS
.ends

* Black-box entry subcircuit for gf180mcu_fd_sc_mcu7t5v0__nand4_2 abstract view
.subckt gf180mcu_fd_sc_mcu7t5v0__nand4_2 A1 A2 A3 A4 ZN VDD VSS
.ends

* Black-box entry subcircuit for gf180mcu_fd_sc_mcu7t5v0__inv_1 abstract view
.subckt gf180mcu_fd_sc_mcu7t5v0__inv_1 I ZN VDD VSS
.ends

* Black-box entry subcircuit for gf180mcu_fd_sc_mcu7t5v0__xor2_1 abstract view
.subckt gf180mcu_fd_sc_mcu7t5v0__xor2_1 A1 A2 Z VDD VSS
.ends

* Black-box entry subcircuit for gf180mcu_fd_sc_mcu7t5v0__aoi211_1 abstract view
.subckt gf180mcu_fd_sc_mcu7t5v0__aoi211_1 A1 A2 B C ZN VDD VSS
.ends

* Black-box entry subcircuit for gf180mcu_fd_sc_mcu7t5v0__or2_2 abstract view
.subckt gf180mcu_fd_sc_mcu7t5v0__or2_2 A1 A2 Z VDD VSS
.ends

* Black-box entry subcircuit for gf180mcu_fd_sc_mcu7t5v0__oai31_1 abstract view
.subckt gf180mcu_fd_sc_mcu7t5v0__oai31_1 A1 A2 A3 B ZN VDD VSS
.ends

* Black-box entry subcircuit for gf180mcu_fd_sc_mcu7t5v0__nor2_2 abstract view
.subckt gf180mcu_fd_sc_mcu7t5v0__nor2_2 A1 A2 ZN VDD VSS
.ends

* Black-box entry subcircuit for gf180mcu_fd_sc_mcu7t5v0__aoi222_1 abstract view
.subckt gf180mcu_fd_sc_mcu7t5v0__aoi222_1 A1 A2 B1 B2 C1 C2 ZN VDD VSS
.ends

* Black-box entry subcircuit for gf180mcu_fd_sc_mcu7t5v0__nor3_1 abstract view
.subckt gf180mcu_fd_sc_mcu7t5v0__nor3_1 A1 A2 A3 ZN VDD VSS
.ends

* Black-box entry subcircuit for gf180mcu_fd_sc_mcu7t5v0__and3_1 abstract view
.subckt gf180mcu_fd_sc_mcu7t5v0__and3_1 A1 A2 A3 Z VDD VSS
.ends

* Black-box entry subcircuit for gf180mcu_fd_sc_mcu7t5v0__aoi211_2 abstract view
.subckt gf180mcu_fd_sc_mcu7t5v0__aoi211_2 A1 A2 B C ZN VDD VSS
.ends

* Black-box entry subcircuit for gf180mcu_fd_sc_mcu7t5v0__nand2_4 abstract view
.subckt gf180mcu_fd_sc_mcu7t5v0__nand2_4 A1 A2 ZN VDD VSS
.ends

* Black-box entry subcircuit for gf180mcu_fd_sc_mcu7t5v0__dffq_2 abstract view
.subckt gf180mcu_fd_sc_mcu7t5v0__dffq_2 D CLK Q VDD VSS
.ends

* Black-box entry subcircuit for gf180mcu_fd_sc_mcu7t5v0__oai222_1 abstract view
.subckt gf180mcu_fd_sc_mcu7t5v0__oai222_1 A1 A2 B1 B2 C1 C2 ZN VDD VSS
.ends

* Black-box entry subcircuit for gf180mcu_fd_sc_mcu7t5v0__nand3_4 abstract view
.subckt gf180mcu_fd_sc_mcu7t5v0__nand3_4 A1 A2 A3 ZN VDD VSS
.ends

* Black-box entry subcircuit for gf180mcu_fd_sc_mcu7t5v0__oai21_2 abstract view
.subckt gf180mcu_fd_sc_mcu7t5v0__oai21_2 A1 A2 B ZN VDD VSS
.ends

* Black-box entry subcircuit for gf180mcu_fd_sc_mcu7t5v0__nor3_4 abstract view
.subckt gf180mcu_fd_sc_mcu7t5v0__nor3_4 A1 A2 A3 ZN VDD VSS
.ends

* Black-box entry subcircuit for gf180mcu_fd_sc_mcu7t5v0__dlyd_1 abstract view
.subckt gf180mcu_fd_sc_mcu7t5v0__dlyd_1 I Z VDD VSS
.ends

* Black-box entry subcircuit for gf180mcu_fd_sc_mcu7t5v0__and4_1 abstract view
.subckt gf180mcu_fd_sc_mcu7t5v0__and4_1 A1 A2 A3 A4 Z VDD VSS
.ends

* Black-box entry subcircuit for gf180mcu_fd_sc_mcu7t5v0__or2_1 abstract view
.subckt gf180mcu_fd_sc_mcu7t5v0__or2_1 A1 A2 Z VDD VSS
.ends

* Black-box entry subcircuit for gf180mcu_fd_sc_mcu7t5v0__xnor2_1 abstract view
.subckt gf180mcu_fd_sc_mcu7t5v0__xnor2_1 A1 A2 ZN VDD VSS
.ends

* Black-box entry subcircuit for gf180mcu_fd_sc_mcu7t5v0__nand4_1 abstract view
.subckt gf180mcu_fd_sc_mcu7t5v0__nand4_1 A1 A2 A3 A4 ZN VDD VSS
.ends

* Black-box entry subcircuit for gf180mcu_fd_sc_mcu7t5v0__oai32_2 abstract view
.subckt gf180mcu_fd_sc_mcu7t5v0__oai32_2 A1 A2 A3 B1 B2 ZN VDD VSS
.ends

* Black-box entry subcircuit for gf180mcu_fd_sc_mcu7t5v0__dffnq_1 abstract view
.subckt gf180mcu_fd_sc_mcu7t5v0__dffnq_1 D CLKN Q VDD VSS
.ends

* Black-box entry subcircuit for gf180mcu_fd_sc_mcu7t5v0__aoi221_4 abstract view
.subckt gf180mcu_fd_sc_mcu7t5v0__aoi221_4 A1 A2 B1 B2 C ZN VDD VSS
.ends

* Black-box entry subcircuit for gf180mcu_fd_sc_mcu7t5v0__nor3_2 abstract view
.subckt gf180mcu_fd_sc_mcu7t5v0__nor3_2 A1 A2 A3 ZN VDD VSS
.ends

* Black-box entry subcircuit for gf180mcu_fd_sc_mcu7t5v0__xor3_1 abstract view
.subckt gf180mcu_fd_sc_mcu7t5v0__xor3_1 A1 A2 A3 Z VDD VSS
.ends

* Black-box entry subcircuit for gf180mcu_fd_sc_mcu7t5v0__nand3_2 abstract view
.subckt gf180mcu_fd_sc_mcu7t5v0__nand3_2 A1 A2 A3 ZN VDD VSS
.ends

* Black-box entry subcircuit for gf180mcu_fd_sc_mcu7t5v0__oai221_1 abstract view
.subckt gf180mcu_fd_sc_mcu7t5v0__oai221_1 A1 A2 B1 B2 C ZN VDD VSS
.ends

* Black-box entry subcircuit for gf180mcu_fd_sc_mcu7t5v0__aoi21_4 abstract view
.subckt gf180mcu_fd_sc_mcu7t5v0__aoi21_4 A1 A2 B ZN VDD VSS
.ends

* Black-box entry subcircuit for gf180mcu_fd_sc_mcu7t5v0__aoi211_4 abstract view
.subckt gf180mcu_fd_sc_mcu7t5v0__aoi211_4 A1 A2 B C ZN VDD VSS
.ends

* Black-box entry subcircuit for gf180mcu_fd_sc_mcu7t5v0__oai211_4 abstract view
.subckt gf180mcu_fd_sc_mcu7t5v0__oai211_4 A1 A2 B C ZN VDD VSS
.ends

* Black-box entry subcircuit for gf180mcu_fd_sc_mcu7t5v0__clkinv_2 abstract view
.subckt gf180mcu_fd_sc_mcu7t5v0__clkinv_2 I ZN VDD VSS
.ends

* Black-box entry subcircuit for gf180mcu_fd_sc_mcu7t5v0__nor4_2 abstract view
.subckt gf180mcu_fd_sc_mcu7t5v0__nor4_2 A1 A2 A3 A4 ZN VDD VSS
.ends

* Black-box entry subcircuit for gf180mcu_fd_sc_mcu7t5v0__and4_2 abstract view
.subckt gf180mcu_fd_sc_mcu7t5v0__and4_2 A1 A2 A3 A4 Z VDD VSS
.ends

* Black-box entry subcircuit for gf180mcu_fd_sc_mcu7t5v0__or4_2 abstract view
.subckt gf180mcu_fd_sc_mcu7t5v0__or4_2 A1 A2 A3 A4 Z VDD VSS
.ends

* Black-box entry subcircuit for gf180mcu_fd_sc_mcu7t5v0__nor4_1 abstract view
.subckt gf180mcu_fd_sc_mcu7t5v0__nor4_1 A1 A2 A3 A4 ZN VDD VSS
.ends

* Black-box entry subcircuit for gf180mcu_fd_sc_mcu7t5v0__oai211_2 abstract view
.subckt gf180mcu_fd_sc_mcu7t5v0__oai211_2 A1 A2 B C ZN VDD VSS
.ends

* Black-box entry subcircuit for gf180mcu_fd_sc_mcu7t5v0__oai32_1 abstract view
.subckt gf180mcu_fd_sc_mcu7t5v0__oai32_1 A1 A2 A3 B1 B2 ZN VDD VSS
.ends

.subckt serv_1 io_in[0] io_in[1] io_in[2] io_in[3] io_in[4] io_oeb[0] io_oeb[1] io_oeb[2]
+ io_oeb[3] io_oeb[4] io_out[0] io_out[1] io_out[2] io_out[3] io_out[4] vdd vss
XFILLER_67_520 vdd vss gf180mcu_fd_sc_mcu7t5v0__fill_2
XFILLER_79_391 vdd vss gf180mcu_fd_sc_mcu7t5v0__fill_1
XFILLER_95_851 vdd vss gf180mcu_fd_sc_mcu7t5v0__fill_1
XFILLER_80_1276 vdd vss gf180mcu_fd_sc_mcu7t5v0__fill_2
X_05903_ _01528_ _01529_ _01530_ vdd vss gf180mcu_fd_sc_mcu7t5v0__and2_1
XANTENNA__10669__A1 _05137_ vdd vss gf180mcu_fd_sc_mcu7t5v0__antenna
X_09671_ _04395_ _04396_ vdd vss gf180mcu_fd_sc_mcu7t5v0__buf_1
X_06883_ u_cpu.rf_ram.memory\[116\]\[7\] u_cpu.rf_ram.memory\[117\]\[7\] u_cpu.rf_ram.memory\[118\]\[7\]
+ u_cpu.rf_ram.memory\[119\]\[7\] _02136_ _01707_ _02493_ vdd vss gf180mcu_fd_sc_mcu7t5v0__mux4_1
XFILLER_80_1298 vdd vss gf180mcu_fd_sc_mcu7t5v0__fillcap_4
XFILLER_55_704 vdd vss gf180mcu_fd_sc_mcu7t5v0__fill_2
XANTENNA__06337__A2 _01952_ vdd vss gf180mcu_fd_sc_mcu7t5v0__antenna
XANTENNA__12595__CLK net274 vdd vss gf180mcu_fd_sc_mcu7t5v0__antenna
XANTENNA__07534__A1 _02987_ vdd vss gf180mcu_fd_sc_mcu7t5v0__antenna
X_05834_ u_cpu.cpu.ctrl.o_ibus_adr\[7\] u_cpu.cpu.ctrl.o_ibus_adr\[6\] u_cpu.cpu.ctrl.o_ibus_adr\[5\]
+ _01464_ _01475_ vdd vss gf180mcu_fd_sc_mcu7t5v0__nand4_4
X_08622_ _03285_ _02921_ _03711_ vdd vss gf180mcu_fd_sc_mcu7t5v0__nand2_2
XFILLER_27_428 vdd vss gf180mcu_fd_sc_mcu7t5v0__fill_1
XANTENNA__09812__B _04531_ vdd vss gf180mcu_fd_sc_mcu7t5v0__antenna
XFILLER_3_1744 vdd vss gf180mcu_fd_sc_mcu7t5v0__fillcap_8
XFILLER_55_748 vdd vss gf180mcu_fd_sc_mcu7t5v0__fill_2
XFILLER_110_1631 vdd vss gf180mcu_fd_sc_mcu7t5v0__fill_1
XFILLER_82_534 vdd vss gf180mcu_fd_sc_mcu7t5v0__fill_2
XANTENNA_fanout56_I net58 vdd vss gf180mcu_fd_sc_mcu7t5v0__antenna
XFILLER_82_545 vdd vss gf180mcu_fd_sc_mcu7t5v0__fillcap_4
XFILLER_54_247 vdd vss gf180mcu_fd_sc_mcu7t5v0__fill_1
X_05765_ u_cpu.cpu.immdec.imm24_20\[1\] _01388_ _01415_ _01416_ vdd vss gf180mcu_fd_sc_mcu7t5v0__aoi21_1
X_08553_ _03484_ _03666_ vdd vss gf180mcu_fd_sc_mcu7t5v0__buf_1
XANTENNA__09287__A1 u_cpu.rf_ram.memory\[117\]\[4\] vdd vss gf180mcu_fd_sc_mcu7t5v0__antenna
XFILLER_35_450 vdd vss gf180mcu_fd_sc_mcu7t5v0__fill_2
XFILLER_58_1735 vdd vss gf180mcu_fd_sc_mcu7t5v0__fillcap_4
XFILLER_39_1134 vdd vss gf180mcu_fd_sc_mcu7t5v0__fill_2
XFILLER_51_921 vdd vss gf180mcu_fd_sc_mcu7t5v0__fill_2
XANTENNA__11094__A1 _02684_ vdd vss gf180mcu_fd_sc_mcu7t5v0__antenna
XFILLER_35_472 vdd vss gf180mcu_fd_sc_mcu7t5v0__fillcap_8
X_07504_ _02987_ _02984_ _02988_ _00123_ vdd vss gf180mcu_fd_sc_mcu7t5v0__oai21_1
XANTENNA__11094__B2 _01386_ vdd vss gf180mcu_fd_sc_mcu7t5v0__antenna
X_08484_ _03595_ _03621_ _03626_ _00465_ vdd vss gf180mcu_fd_sc_mcu7t5v0__oai21_1
XANTENNA_u_scanchain_local.scan_flop\[45\]_SE net559 vdd vss gf180mcu_fd_sc_mcu7t5v0__antenna
XFILLER_22_111 vdd vss gf180mcu_fd_sc_mcu7t5v0__fill_2
XFILLER_1_1490 vdd vss gf180mcu_fd_sc_mcu7t5v0__fill_1
XANTENNA__07837__A2 _03205_ vdd vss gf180mcu_fd_sc_mcu7t5v0__antenna
XFILLER_23_645 vdd vss gf180mcu_fd_sc_mcu7t5v0__fill_2
XFILLER_51_954 vdd vss gf180mcu_fd_sc_mcu7t5v0__fill_2
XANTENNA__06896__I0 u_cpu.rf_ram.memory\[64\]\[7\] vdd vss gf180mcu_fd_sc_mcu7t5v0__antenna
XANTENNA__10841__A1 _05209_ vdd vss gf180mcu_fd_sc_mcu7t5v0__antenna
XFILLER_39_1189 vdd vss gf180mcu_fd_sc_mcu7t5v0__fill_2
XFILLER_50_442 vdd vss gf180mcu_fd_sc_mcu7t5v0__fill_2
X_07435_ _02889_ _02942_ _02944_ _00098_ vdd vss gf180mcu_fd_sc_mcu7t5v0__oai21_1
XFILLER_51_976 vdd vss gf180mcu_fd_sc_mcu7t5v0__fill_1
XFILLER_22_166 vdd vss gf180mcu_fd_sc_mcu7t5v0__fill_2
XFILLER_10_306 vdd vss gf180mcu_fd_sc_mcu7t5v0__fill_2
XFILLER_52_1312 vdd vss gf180mcu_fd_sc_mcu7t5v0__fill_1
XFILLER_91_1372 vdd vss gf180mcu_fd_sc_mcu7t5v0__fillcap_4
XFILLER_56_1492 vdd vss gf180mcu_fd_sc_mcu7t5v0__fillcap_4
X_07366_ _02731_ _02891_ _02892_ vdd vss gf180mcu_fd_sc_mcu7t5v0__nand2_1
XFILLER_52_1345 vdd vss gf180mcu_fd_sc_mcu7t5v0__fill_1
XFILLER_52_1356 vdd vss gf180mcu_fd_sc_mcu7t5v0__fill_1
XFILLER_108_1593 vdd vss gf180mcu_fd_sc_mcu7t5v0__fillcap_4
XFILLER_104_1446 vdd vss gf180mcu_fd_sc_mcu7t5v0__fill_2
X_06317_ _01929_ _01931_ _01932_ _01933_ vdd vss gf180mcu_fd_sc_mcu7t5v0__aoi21_1
X_09105_ _03969_ _04015_ _04017_ _00695_ vdd vss gf180mcu_fd_sc_mcu7t5v0__oai21_1
XFILLER_104_1457 vdd vss gf180mcu_fd_sc_mcu7t5v0__fill_1
XANTENNA__10185__S _04849_ vdd vss gf180mcu_fd_sc_mcu7t5v0__antenna
XFILLER_30_1610 vdd vss gf180mcu_fd_sc_mcu7t5v0__fill_2
XANTENNA__08262__A2 _03474_ vdd vss gf180mcu_fd_sc_mcu7t5v0__antenna
X_07297_ _02768_ _02834_ _02841_ _00063_ vdd vss gf180mcu_fd_sc_mcu7t5v0__oai21_1
XFILLER_87_1408 vdd vss gf180mcu_fd_sc_mcu7t5v0__fill_1
XFILLER_87_1419 vdd vss gf180mcu_fd_sc_mcu7t5v0__fill_1
X_09036_ _03971_ _03973_ vdd vss gf180mcu_fd_sc_mcu7t5v0__buf_1
X_06248_ u_cpu.rf_ram.memory\[52\]\[1\] u_cpu.rf_ram.memory\[53\]\[1\] u_cpu.rf_ram.memory\[54\]\[1\]
+ u_cpu.rf_ram.memory\[55\]\[1\] _01863_ _01653_ _01864_ vdd vss gf180mcu_fd_sc_mcu7t5v0__mux4_1
XFILLER_11_1053 vdd vss gf180mcu_fd_sc_mcu7t5v0__fill_2
XFILLER_123_208 vdd vss gf180mcu_fd_sc_mcu7t5v0__fillcap_4
XFILLER_117_783 vdd vss gf180mcu_fd_sc_mcu7t5v0__fill_2
XFILLER_102_1192 vdd vss gf180mcu_fd_sc_mcu7t5v0__fill_2
XFILLER_65_1706 vdd vss gf180mcu_fd_sc_mcu7t5v0__fill_1
XANTENNA__08014__A2 _03324_ vdd vss gf180mcu_fd_sc_mcu7t5v0__antenna
X_06179_ _01791_ _01794_ _01795_ _01796_ vdd vss gf180mcu_fd_sc_mcu7t5v0__aoi21_1
XFILLER_2_527 vdd vss gf180mcu_fd_sc_mcu7t5v0__fillcap_4
XFILLER_105_956 vdd vss gf180mcu_fd_sc_mcu7t5v0__fill_2
XFILLER_85_1165 vdd vss gf180mcu_fd_sc_mcu7t5v0__fill_2
XFILLER_117_66 vdd vss gf180mcu_fd_sc_mcu7t5v0__fillcap_4
XFILLER_85_1176 vdd vss gf180mcu_fd_sc_mcu7t5v0__fillcap_4
XFILLER_105_978 vdd vss gf180mcu_fd_sc_mcu7t5v0__fill_2
XFILLER_89_144 vdd vss gf180mcu_fd_sc_mcu7t5v0__fill_1
XFILLER_78_818 vdd vss gf180mcu_fd_sc_mcu7t5v0__fillcap_4
XANTENNA__06415__I3 u_cpu.rf_ram.memory\[91\]\[2\] vdd vss gf180mcu_fd_sc_mcu7t5v0__antenna
XANTENNA__06576__A2 _02188_ vdd vss gf180mcu_fd_sc_mcu7t5v0__antenna
XFILLER_137_1277 vdd vss gf180mcu_fd_sc_mcu7t5v0__fill_1
XANTENNA__11812__CLK net376 vdd vss gf180mcu_fd_sc_mcu7t5v0__antenna
XFILLER_120_948 vdd vss gf180mcu_fd_sc_mcu7t5v0__fill_2
X_09938_ _04578_ _04639_ _04423_ _04640_ vdd vss gf180mcu_fd_sc_mcu7t5v0__oai21_1
XFILLER_63_1463 vdd vss gf180mcu_fd_sc_mcu7t5v0__fill_2
XANTENNA__05806__I _01452_ vdd vss gf180mcu_fd_sc_mcu7t5v0__antenna
XFILLER_115_1564 vdd vss gf180mcu_fd_sc_mcu7t5v0__fill_1
X_09869_ _04575_ _04580_ _04581_ _04583_ _04584_ vdd vss gf180mcu_fd_sc_mcu7t5v0__aoi22_1
XTAP_3202 vdd vss gf180mcu_fd_sc_mcu7t5v0__filltie
XFILLER_86_884 vdd vss gf180mcu_fd_sc_mcu7t5v0__fill_2
XANTENNA__06328__A2 _01943_ vdd vss gf180mcu_fd_sc_mcu7t5v0__antenna
XTAP_3213 vdd vss gf180mcu_fd_sc_mcu7t5v0__filltie
XFILLER_115_1597 vdd vss gf180mcu_fd_sc_mcu7t5v0__fill_2
XFILLER_98_1537 vdd vss gf180mcu_fd_sc_mcu7t5v0__fill_2
XFILLER_86_895 vdd vss gf180mcu_fd_sc_mcu7t5v0__fill_2
XFILLER_85_361 vdd vss gf180mcu_fd_sc_mcu7t5v0__fill_2
XFILLER_18_417 vdd vss gf180mcu_fd_sc_mcu7t5v0__fill_2
XFILLER_46_726 vdd vss gf180mcu_fd_sc_mcu7t5v0__fill_2
XFILLER_58_586 vdd vss gf180mcu_fd_sc_mcu7t5v0__fill_2
XTAP_3224 vdd vss gf180mcu_fd_sc_mcu7t5v0__filltie
XFILLER_111_1439 vdd vss gf180mcu_fd_sc_mcu7t5v0__fill_1
XFILLER_73_512 vdd vss gf180mcu_fd_sc_mcu7t5v0__fill_2
X_11900_ _00596_ net468 u_cpu.rf_ram.memory\[132\]\[5\] vdd vss gf180mcu_fd_sc_mcu7t5v0__dffq_1
XTAP_3235 vdd vss gf180mcu_fd_sc_mcu7t5v0__filltie
XTAP_2501 vdd vss gf180mcu_fd_sc_mcu7t5v0__filltie
XTAP_3246 vdd vss gf180mcu_fd_sc_mcu7t5v0__filltie
XFILLER_22_1160 vdd vss gf180mcu_fd_sc_mcu7t5v0__fill_2
XTAP_3257 vdd vss gf180mcu_fd_sc_mcu7t5v0__filltie
XFILLER_93_58 vdd vss gf180mcu_fd_sc_mcu7t5v0__fillcap_4
XTAP_2512 vdd vss gf180mcu_fd_sc_mcu7t5v0__filltie
XTAP_3268 vdd vss gf180mcu_fd_sc_mcu7t5v0__filltie
XTAP_2523 vdd vss gf180mcu_fd_sc_mcu7t5v0__filltie
XTAP_3279 vdd vss gf180mcu_fd_sc_mcu7t5v0__filltie
XTAP_2534 vdd vss gf180mcu_fd_sc_mcu7t5v0__filltie
X_11831_ _00527_ net478 u_cpu.rf_ram.memory\[138\]\[0\] vdd vss gf180mcu_fd_sc_mcu7t5v0__dffq_1
XFILLER_73_567 vdd vss gf180mcu_fd_sc_mcu7t5v0__fill_1
XTAP_2545 vdd vss gf180mcu_fd_sc_mcu7t5v0__filltie
XANTENNA__09278__A1 u_cpu.rf_ram.memory\[117\]\[0\] vdd vss gf180mcu_fd_sc_mcu7t5v0__antenna
XFILLER_57_1201 vdd vss gf180mcu_fd_sc_mcu7t5v0__fill_2
XTAP_1800 vdd vss gf180mcu_fd_sc_mcu7t5v0__filltie
XFILLER_61_718 vdd vss gf180mcu_fd_sc_mcu7t5v0__fillcap_4
XTAP_2556 vdd vss gf180mcu_fd_sc_mcu7t5v0__filltie
XTAP_1811 vdd vss gf180mcu_fd_sc_mcu7t5v0__filltie
XTAP_1822 vdd vss gf180mcu_fd_sc_mcu7t5v0__filltie
XTAP_2567 vdd vss gf180mcu_fd_sc_mcu7t5v0__filltie
XANTENNA__11085__A1 _04026_ vdd vss gf180mcu_fd_sc_mcu7t5v0__antenna
XTAP_2578 vdd vss gf180mcu_fd_sc_mcu7t5v0__filltie
XFILLER_57_1245 vdd vss gf180mcu_fd_sc_mcu7t5v0__fillcap_16
XTAP_1833 vdd vss gf180mcu_fd_sc_mcu7t5v0__filltie
XTAP_2589 vdd vss gf180mcu_fd_sc_mcu7t5v0__filltie
X_11762_ _00458_ net490 u_cpu.rf_ram.memory\[141\]\[3\] vdd vss gf180mcu_fd_sc_mcu7t5v0__dffq_1
XFILLER_42_943 vdd vss gf180mcu_fd_sc_mcu7t5v0__fill_1
XANTENNA__07828__A2 _03208_ vdd vss gf180mcu_fd_sc_mcu7t5v0__antenna
XTAP_1844 vdd vss gf180mcu_fd_sc_mcu7t5v0__filltie
XTAP_1855 vdd vss gf180mcu_fd_sc_mcu7t5v0__filltie
XANTENNA__06187__S1 _01803_ vdd vss gf180mcu_fd_sc_mcu7t5v0__antenna
XANTENNA__09013__I _03957_ vdd vss gf180mcu_fd_sc_mcu7t5v0__antenna
XFILLER_53_291 vdd vss gf180mcu_fd_sc_mcu7t5v0__fill_2
XTAP_1866 vdd vss gf180mcu_fd_sc_mcu7t5v0__filltie
XFILLER_92_1158 vdd vss gf180mcu_fd_sc_mcu7t5v0__fill_2
XANTENNA__05839__A1 _01473_ vdd vss gf180mcu_fd_sc_mcu7t5v0__antenna
XFILLER_109_1357 vdd vss gf180mcu_fd_sc_mcu7t5v0__fill_2
X_10713_ u_cpu.rf_ram.memory\[104\]\[4\] _05180_ _05183_ vdd vss gf180mcu_fd_sc_mcu7t5v0__nand2_1
XFILLER_13_144 vdd vss gf180mcu_fd_sc_mcu7t5v0__fillcap_64
XTAP_1877 vdd vss gf180mcu_fd_sc_mcu7t5v0__filltie
XFILLER_14_678 vdd vss gf180mcu_fd_sc_mcu7t5v0__fill_1
XTAP_1888 vdd vss gf180mcu_fd_sc_mcu7t5v0__filltie
X_11693_ _00397_ net331 u_cpu.rf_ram.memory\[56\]\[6\] vdd vss gf180mcu_fd_sc_mcu7t5v0__dffq_1
XFILLER_42_998 vdd vss gf180mcu_fd_sc_mcu7t5v0__fill_2
XTAP_1899 vdd vss gf180mcu_fd_sc_mcu7t5v0__filltie
XFILLER_144_1259 vdd vss gf180mcu_fd_sc_mcu7t5v0__fill_1
XANTENNA__06500__A2 _02108_ vdd vss gf180mcu_fd_sc_mcu7t5v0__antenna
XANTENNA__06351__I2 u_cpu.rf_ram.memory\[22\]\[2\] vdd vss gf180mcu_fd_sc_mcu7t5v0__antenna
XFILLER_9_137 vdd vss gf180mcu_fd_sc_mcu7t5v0__fillcap_4
X_10644_ _05137_ _05132_ _05139_ _01113_ vdd vss gf180mcu_fd_sc_mcu7t5v0__oai21_1
XFILLER_31_1407 vdd vss gf180mcu_fd_sc_mcu7t5v0__fill_2
XFILLER_31_1418 vdd vss gf180mcu_fd_sc_mcu7t5v0__fill_2
XFILLER_6_811 vdd vss gf180mcu_fd_sc_mcu7t5v0__fillcap_4
X_10575_ _03112_ _05097_ _01086_ vdd vss gf180mcu_fd_sc_mcu7t5v0__nor2_1
XANTENNA__08253__A2 _03473_ vdd vss gf180mcu_fd_sc_mcu7t5v0__antenna
XANTENNA__10060__A2 _04429_ vdd vss gf180mcu_fd_sc_mcu7t5v0__antenna
X_12314_ _00994_ net528 u_cpu.cpu.ctrl.o_ibus_adr\[10\] vdd vss gf180mcu_fd_sc_mcu7t5v0__dffq_1
XFILLER_5_354 vdd vss gf180mcu_fd_sc_mcu7t5v0__fill_1
XFILLER_108_783 vdd vss gf180mcu_fd_sc_mcu7t5v0__fill_2
XFILLER_120_1292 vdd vss gf180mcu_fd_sc_mcu7t5v0__fill_2
Xu_scanchain_local.scan_flop\[34\] u_arbiter.i_wb_cpu_rdt\[31\] net549 u_arbiter.i_wb_cpu_dbus_dat\[28\]
+ net16 u_scanchain_local.module_data_in\[34\] vdd vss gf180mcu_fd_sc_mcu7t5v0__sdffq_1
XANTENNA__09202__A1 _02551_ vdd vss gf180mcu_fd_sc_mcu7t5v0__antenna
XANTENNA__08005__A2 _03313_ vdd vss gf180mcu_fd_sc_mcu7t5v0__antenna
X_12245_ _00928_ net272 u_cpu.rf_ram.memory\[32\]\[1\] vdd vss gf180mcu_fd_sc_mcu7t5v0__dffq_1
XFILLER_29_1303 vdd vss gf180mcu_fd_sc_mcu7t5v0__fill_2
XANTENNA__10348__B1 _04945_ vdd vss gf180mcu_fd_sc_mcu7t5v0__antenna
XFILLER_108_794 vdd vss gf180mcu_fd_sc_mcu7t5v0__fill_2
XFILLER_69_807 vdd vss gf180mcu_fd_sc_mcu7t5v0__fill_2
X_12176_ _00859_ net387 u_arbiter.i_wb_cpu_dbus_dat\[15\] vdd vss gf180mcu_fd_sc_mcu7t5v0__dffq_1
XFILLER_68_1396 vdd vss gf180mcu_fd_sc_mcu7t5v0__fill_2
XFILLER_29_1347 vdd vss gf180mcu_fd_sc_mcu7t5v0__fill_2
XANTENNA__10899__A1 _05300_ vdd vss gf180mcu_fd_sc_mcu7t5v0__antenna
XFILLER_69_829 vdd vss gf180mcu_fd_sc_mcu7t5v0__fill_2
XANTENNA__06567__A2 _02179_ vdd vss gf180mcu_fd_sc_mcu7t5v0__antenna
XANTENNA__11492__CLK net105 vdd vss gf180mcu_fd_sc_mcu7t5v0__antenna
XFILLER_95_114 vdd vss gf180mcu_fd_sc_mcu7t5v0__fill_2
XANTENNA__08299__I _02776_ vdd vss gf180mcu_fd_sc_mcu7t5v0__antenna
X_11127_ _05445_ _05447_ vdd vss gf180mcu_fd_sc_mcu7t5v0__buf_1
XFILLER_46_1683 vdd vss gf180mcu_fd_sc_mcu7t5v0__fill_2
XFILLER_42_1525 vdd vss gf180mcu_fd_sc_mcu7t5v0__fill_1
XFILLER_77_851 vdd vss gf180mcu_fd_sc_mcu7t5v0__fill_1
XFILLER_27_1082 vdd vss gf180mcu_fd_sc_mcu7t5v0__fillcap_4
XFILLER_49_542 vdd vss gf180mcu_fd_sc_mcu7t5v0__fill_2
XFILLER_67_70 vdd vss gf180mcu_fd_sc_mcu7t5v0__fill_1
X_11058_ _05359_ _05392_ _05399_ _01267_ vdd vss gf180mcu_fd_sc_mcu7t5v0__oai21_1
XFILLER_49_564 vdd vss gf180mcu_fd_sc_mcu7t5v0__fillcap_4
XANTENNA__11312__A2 _05558_ vdd vss gf180mcu_fd_sc_mcu7t5v0__antenna
X_10009_ u_cpu.cpu.immdec.imm30_25\[4\] _04667_ _04695_ u_cpu.cpu.immdec.imm30_25\[5\]
+ _04705_ vdd vss gf180mcu_fd_sc_mcu7t5v0__oai22_1
XFILLER_36_203 vdd vss gf180mcu_fd_sc_mcu7t5v0__fill_2
XFILLER_37_737 vdd vss gf180mcu_fd_sc_mcu7t5v0__fill_2
XFILLER_64_534 vdd vss gf180mcu_fd_sc_mcu7t5v0__fill_1
XANTENNA_u_scanchain_local.scan_flop\[68\]_SE net559 vdd vss gf180mcu_fd_sc_mcu7t5v0__antenna
XFILLER_92_854 vdd vss gf180mcu_fd_sc_mcu7t5v0__fill_2
XFILLER_18_940 vdd vss gf180mcu_fd_sc_mcu7t5v0__fill_2
XFILLER_64_545 vdd vss gf180mcu_fd_sc_mcu7t5v0__fill_1
XANTENNA_fanout260_I net261 vdd vss gf180mcu_fd_sc_mcu7t5v0__antenna
XFILLER_36_269 vdd vss gf180mcu_fd_sc_mcu7t5v0__fill_2
XTAP_3780 vdd vss gf180mcu_fd_sc_mcu7t5v0__filltie
XANTENNA_fanout358_I net359 vdd vss gf180mcu_fd_sc_mcu7t5v0__antenna
XFILLER_17_450 vdd vss gf180mcu_fd_sc_mcu7t5v0__fill_1
XTAP_3791 vdd vss gf180mcu_fd_sc_mcu7t5v0__filltie
XFILLER_51_217 vdd vss gf180mcu_fd_sc_mcu7t5v0__fill_1
XFILLER_17_483 vdd vss gf180mcu_fd_sc_mcu7t5v0__fill_2
XANTENNA__11076__A1 _05357_ vdd vss gf180mcu_fd_sc_mcu7t5v0__antenna
XFILLER_33_932 vdd vss gf180mcu_fd_sc_mcu7t5v0__fill_2
XFILLER_51_228 vdd vss gf180mcu_fd_sc_mcu7t5v0__fill_1
XFILLER_75_1345 vdd vss gf180mcu_fd_sc_mcu7t5v0__fillcap_4
XFILLER_51_239 vdd vss gf180mcu_fd_sc_mcu7t5v0__fill_2
XFILLER_32_420 vdd vss gf180mcu_fd_sc_mcu7t5v0__fillcap_4
XFILLER_32_431 vdd vss gf180mcu_fd_sc_mcu7t5v0__fill_2
XFILLER_36_1318 vdd vss gf180mcu_fd_sc_mcu7t5v0__fill_2
XFILLER_71_1209 vdd vss gf180mcu_fd_sc_mcu7t5v0__fillcap_8
XANTENNA__10823__A1 _05211_ vdd vss gf180mcu_fd_sc_mcu7t5v0__antenna
XANTENNA_fanout525_I net527 vdd vss gf180mcu_fd_sc_mcu7t5v0__antenna
XFILLER_32_453 vdd vss gf180mcu_fd_sc_mcu7t5v0__fill_1
XFILLER_92_1670 vdd vss gf180mcu_fd_sc_mcu7t5v0__fill_1
XANTENNA__08492__A2 _03622_ vdd vss gf180mcu_fd_sc_mcu7t5v0__antenna
XFILLER_18_1741 vdd vss gf180mcu_fd_sc_mcu7t5v0__fillcap_16
XFILLER_32_486 vdd vss gf180mcu_fd_sc_mcu7t5v0__fill_2
X_07220_ u_cpu.rf_ram.memory\[21\]\[0\] _02793_ _02794_ vdd vss gf180mcu_fd_sc_mcu7t5v0__nand2_1
XFILLER_80_2 vdd vss gf180mcu_fd_sc_mcu7t5v0__fill_2
XFILLER_34_1031 vdd vss gf180mcu_fd_sc_mcu7t5v0__fill_1
XFILLER_73_1091 vdd vss gf180mcu_fd_sc_mcu7t5v0__fill_2
XFILLER_34_1042 vdd vss gf180mcu_fd_sc_mcu7t5v0__fill_2
XFILLER_125_1170 vdd vss gf180mcu_fd_sc_mcu7t5v0__fill_2
XANTENNA__06893__I3 u_cpu.rf_ram.memory\[87\]\[7\] vdd vss gf180mcu_fd_sc_mcu7t5v0__antenna
XFILLER_34_1064 vdd vss gf180mcu_fd_sc_mcu7t5v0__fill_2
X_07151_ _02732_ _02733_ vdd vss gf180mcu_fd_sc_mcu7t5v0__buf_1
XFILLER_34_1075 vdd vss gf180mcu_fd_sc_mcu7t5v0__fill_2
XANTENNA__09441__A1 _04152_ vdd vss gf180mcu_fd_sc_mcu7t5v0__antenna
XANTENNA__08244__A2 _03462_ vdd vss gf180mcu_fd_sc_mcu7t5v0__antenna
XFILLER_121_1056 vdd vss gf180mcu_fd_sc_mcu7t5v0__fill_1
X_06102_ _01715_ _01718_ _01719_ vdd vss gf180mcu_fd_sc_mcu7t5v0__nand2_1
XFILLER_121_1067 vdd vss gf180mcu_fd_sc_mcu7t5v0__fill_1
XANTENNA__10051__A2 _04738_ vdd vss gf180mcu_fd_sc_mcu7t5v0__antenna
X_07082_ u_cpu.cpu.state.o_cnt_r\[0\] u_cpu.cpu.state.o_cnt_r\[1\] u_cpu.cpu.state.o_cnt_r\[2\]
+ _02563_ _02674_ vdd vss gf180mcu_fd_sc_mcu7t5v0__nor4_4
XFILLER_69_1127 vdd vss gf180mcu_fd_sc_mcu7t5v0__fillcap_8
XFILLER_121_1078 vdd vss gf180mcu_fd_sc_mcu7t5v0__fill_2
XANTENNA__09992__A2 _04452_ vdd vss gf180mcu_fd_sc_mcu7t5v0__antenna
XFILLER_69_1138 vdd vss gf180mcu_fd_sc_mcu7t5v0__fillcap_16
XFILLER_105_208 vdd vss gf180mcu_fd_sc_mcu7t5v0__fillcap_4
XFILLER_12_1373 vdd vss gf180mcu_fd_sc_mcu7t5v0__fill_2
X_06033_ _01581_ _01650_ vdd vss gf180mcu_fd_sc_mcu7t5v0__buf_1
XFILLER_114_720 vdd vss gf180mcu_fd_sc_mcu7t5v0__fill_2
XFILLER_86_1452 vdd vss gf180mcu_fd_sc_mcu7t5v0__fill_2
XFILLER_82_1305 vdd vss gf180mcu_fd_sc_mcu7t5v0__fillcap_8
XFILLER_87_604 vdd vss gf180mcu_fd_sc_mcu7t5v0__fillcap_4
XFILLER_102_915 vdd vss gf180mcu_fd_sc_mcu7t5v0__fill_2
Xfanout105 net107 net105 vdd vss gf180mcu_fd_sc_mcu7t5v0__dlyc_1
Xfanout116 net119 net116 vdd vss gf180mcu_fd_sc_mcu7t5v0__dlyc_1
XANTENNA__07755__A1 _03075_ vdd vss gf180mcu_fd_sc_mcu7t5v0__antenna
Xfanout127 net129 net127 vdd vss gf180mcu_fd_sc_mcu7t5v0__dlyc_1
Xfanout138 net139 net138 vdd vss gf180mcu_fd_sc_mcu7t5v0__dlyb_1
XANTENNA__10532__I _05071_ vdd vss gf180mcu_fd_sc_mcu7t5v0__antenna
XFILLER_59_328 vdd vss gf180mcu_fd_sc_mcu7t5v0__fill_2
XFILLER_101_425 vdd vss gf180mcu_fd_sc_mcu7t5v0__fill_1
Xfanout149 net151 net149 vdd vss gf180mcu_fd_sc_mcu7t5v0__dlyc_1
X_07984_ _03266_ _03300_ _03307_ _00284_ vdd vss gf180mcu_fd_sc_mcu7t5v0__oai21_1
XANTENNA__06231__B _01603_ vdd vss gf180mcu_fd_sc_mcu7t5v0__antenna
XANTENNA__11985__CLK net438 vdd vss gf180mcu_fd_sc_mcu7t5v0__antenna
X_09723_ _04436_ _04447_ _04448_ vdd vss gf180mcu_fd_sc_mcu7t5v0__nand2_1
XFILLER_86_158 vdd vss gf180mcu_fd_sc_mcu7t5v0__fill_2
X_06935_ u_cpu.rf_ram_if.rdata1\[0\] u_cpu.rf_ram_if.rtrig1 _02544_ vdd vss gf180mcu_fd_sc_mcu7t5v0__nor2_1
XFILLER_41_1024 vdd vss gf180mcu_fd_sc_mcu7t5v0__fillcap_4
XFILLER_45_1193 vdd vss gf180mcu_fd_sc_mcu7t5v0__fill_2
XFILLER_60_1658 vdd vss gf180mcu_fd_sc_mcu7t5v0__fill_2
XANTENNA__11303__A2 _05547_ vdd vss gf180mcu_fd_sc_mcu7t5v0__antenna