* NGSPICE file created from serv_2.ext - technology: gf180mcuC

* Black-box entry subcircuit for gf180mcu_fd_sc_mcu7t5v0__fill_2 abstract view
.subckt gf180mcu_fd_sc_mcu7t5v0__fill_2 VDD VSS
.ends

* Black-box entry subcircuit for gf180mcu_fd_sc_mcu7t5v0__fillcap_4 abstract view
.subckt gf180mcu_fd_sc_mcu7t5v0__fillcap_4 VDD VSS
.ends

* Black-box entry subcircuit for gf180mcu_fd_sc_mcu7t5v0__fill_1 abstract view
.subckt gf180mcu_fd_sc_mcu7t5v0__fill_1 VDD VSS
.ends

* Black-box entry subcircuit for gf180mcu_fd_sc_mcu7t5v0__antenna abstract view
.subckt gf180mcu_fd_sc_mcu7t5v0__antenna I VDD VSS
.ends

* Black-box entry subcircuit for gf180mcu_fd_sc_mcu7t5v0__clkbuf_2 abstract view
.subckt gf180mcu_fd_sc_mcu7t5v0__clkbuf_2 I Z VDD VSS
.ends

* Black-box entry subcircuit for gf180mcu_fd_sc_mcu7t5v0__buf_1 abstract view
.subckt gf180mcu_fd_sc_mcu7t5v0__buf_1 I Z VDD VSS
.ends

* Black-box entry subcircuit for gf180mcu_fd_sc_mcu7t5v0__inv_1 abstract view
.subckt gf180mcu_fd_sc_mcu7t5v0__inv_1 I ZN VDD VSS
.ends

* Black-box entry subcircuit for gf180mcu_fd_sc_mcu7t5v0__aoi21_1 abstract view
.subckt gf180mcu_fd_sc_mcu7t5v0__aoi21_1 A1 A2 B ZN VDD VSS
.ends

* Black-box entry subcircuit for gf180mcu_fd_sc_mcu7t5v0__fillcap_64 abstract view
.subckt gf180mcu_fd_sc_mcu7t5v0__fillcap_64 VDD VSS
.ends

* Black-box entry subcircuit for gf180mcu_fd_sc_mcu7t5v0__nand2_1 abstract view
.subckt gf180mcu_fd_sc_mcu7t5v0__nand2_1 A1 A2 ZN VDD VSS
.ends

* Black-box entry subcircuit for gf180mcu_fd_sc_mcu7t5v0__oai21_1 abstract view
.subckt gf180mcu_fd_sc_mcu7t5v0__oai21_1 A1 A2 B ZN VDD VSS
.ends

* Black-box entry subcircuit for gf180mcu_fd_sc_mcu7t5v0__clkbuf_1 abstract view
.subckt gf180mcu_fd_sc_mcu7t5v0__clkbuf_1 I Z VDD VSS
.ends

* Black-box entry subcircuit for gf180mcu_fd_sc_mcu7t5v0__fillcap_8 abstract view
.subckt gf180mcu_fd_sc_mcu7t5v0__fillcap_8 VDD VSS
.ends

* Black-box entry subcircuit for gf180mcu_fd_sc_mcu7t5v0__filltie abstract view
.subckt gf180mcu_fd_sc_mcu7t5v0__filltie VDD VSS
.ends

* Black-box entry subcircuit for gf180mcu_fd_sc_mcu7t5v0__dffq_1 abstract view
.subckt gf180mcu_fd_sc_mcu7t5v0__dffq_1 D CLK Q VDD VSS
.ends

* Black-box entry subcircuit for gf180mcu_fd_sc_mcu7t5v0__nand3_1 abstract view
.subckt gf180mcu_fd_sc_mcu7t5v0__nand3_1 A1 A2 A3 ZN VDD VSS
.ends

* Black-box entry subcircuit for gf180mcu_fd_sc_mcu7t5v0__nor2_1 abstract view
.subckt gf180mcu_fd_sc_mcu7t5v0__nor2_1 A1 A2 ZN VDD VSS
.ends

* Black-box entry subcircuit for gf180mcu_fd_sc_mcu7t5v0__clkinv_1 abstract view
.subckt gf180mcu_fd_sc_mcu7t5v0__clkinv_1 I ZN VDD VSS
.ends

* Black-box entry subcircuit for gf180mcu_fd_sc_mcu7t5v0__fillcap_32 abstract view
.subckt gf180mcu_fd_sc_mcu7t5v0__fillcap_32 VDD VSS
.ends

* Black-box entry subcircuit for gf180mcu_fd_sc_mcu7t5v0__dlyc_1 abstract view
.subckt gf180mcu_fd_sc_mcu7t5v0__dlyc_1 I Z VDD VSS
.ends

* Black-box entry subcircuit for gf180mcu_fd_sc_mcu7t5v0__dlyd_1 abstract view
.subckt gf180mcu_fd_sc_mcu7t5v0__dlyd_1 I Z VDD VSS
.ends

* Black-box entry subcircuit for gf180mcu_fd_sc_mcu7t5v0__dlyb_1 abstract view
.subckt gf180mcu_fd_sc_mcu7t5v0__dlyb_1 I Z VDD VSS
.ends

* Black-box entry subcircuit for gf180mcu_fd_sc_mcu7t5v0__mux4_1 abstract view
.subckt gf180mcu_fd_sc_mcu7t5v0__mux4_1 I0 I1 I2 I3 S0 S1 Z VDD VSS
.ends

* Black-box entry subcircuit for gf180mcu_fd_sc_mcu7t5v0__nand2_2 abstract view
.subckt gf180mcu_fd_sc_mcu7t5v0__nand2_2 A1 A2 ZN VDD VSS
.ends

* Black-box entry subcircuit for gf180mcu_fd_sc_mcu7t5v0__nor3_2 abstract view
.subckt gf180mcu_fd_sc_mcu7t5v0__nor3_2 A1 A2 A3 ZN VDD VSS
.ends

* Black-box entry subcircuit for gf180mcu_fd_sc_mcu7t5v0__fillcap_16 abstract view
.subckt gf180mcu_fd_sc_mcu7t5v0__fillcap_16 VDD VSS
.ends

* Black-box entry subcircuit for gf180mcu_fd_sc_mcu7t5v0__aoi211_1 abstract view
.subckt gf180mcu_fd_sc_mcu7t5v0__aoi211_1 A1 A2 B C ZN VDD VSS
.ends

* Black-box entry subcircuit for gf180mcu_fd_sc_mcu7t5v0__aoi22_1 abstract view
.subckt gf180mcu_fd_sc_mcu7t5v0__aoi22_1 A1 A2 B1 B2 ZN VDD VSS
.ends

* Black-box entry subcircuit for gf180mcu_fd_sc_mcu7t5v0__aoi221_1 abstract view
.subckt gf180mcu_fd_sc_mcu7t5v0__aoi221_1 A1 A2 B1 B2 C ZN VDD VSS
.ends

* Black-box entry subcircuit for gf180mcu_fd_sc_mcu7t5v0__oai22_1 abstract view
.subckt gf180mcu_fd_sc_mcu7t5v0__oai22_1 A1 A2 B1 B2 ZN VDD VSS
.ends

* Black-box entry subcircuit for gf180mcu_fd_sc_mcu7t5v0__xor2_1 abstract view
.subckt gf180mcu_fd_sc_mcu7t5v0__xor2_1 A1 A2 Z VDD VSS
.ends

* Black-box entry subcircuit for gf180mcu_fd_sc_mcu7t5v0__mux2_2 abstract view
.subckt gf180mcu_fd_sc_mcu7t5v0__mux2_2 I0 I1 S Z VDD VSS
.ends

* Black-box entry subcircuit for gf180mcu_fd_sc_mcu7t5v0__oai211_1 abstract view
.subckt gf180mcu_fd_sc_mcu7t5v0__oai211_1 A1 A2 B C ZN VDD VSS
.ends

* Black-box entry subcircuit for gf180mcu_fd_sc_mcu7t5v0__dffq_2 abstract view
.subckt gf180mcu_fd_sc_mcu7t5v0__dffq_2 D CLK Q VDD VSS
.ends

* Black-box entry subcircuit for gf180mcu_fd_sc_mcu7t5v0__nor3_1 abstract view
.subckt gf180mcu_fd_sc_mcu7t5v0__nor3_1 A1 A2 A3 ZN VDD VSS
.ends

* Black-box entry subcircuit for gf180mcu_fd_sc_mcu7t5v0__oai31_1 abstract view
.subckt gf180mcu_fd_sc_mcu7t5v0__oai31_1 A1 A2 A3 B ZN VDD VSS
.ends

* Black-box entry subcircuit for gf180mcu_fd_sc_mcu7t5v0__nor2_2 abstract view
.subckt gf180mcu_fd_sc_mcu7t5v0__nor2_2 A1 A2 ZN VDD VSS
.ends

* Black-box entry subcircuit for gf180mcu_fd_sc_mcu7t5v0__or2_1 abstract view
.subckt gf180mcu_fd_sc_mcu7t5v0__or2_1 A1 A2 Z VDD VSS
.ends

* Black-box entry subcircuit for gf180mcu_fd_sc_mcu7t5v0__clkbuf_3 abstract view
.subckt gf180mcu_fd_sc_mcu7t5v0__clkbuf_3 I Z VDD VSS
.ends

* Black-box entry subcircuit for gf180mcu_fd_sc_mcu7t5v0__endcap abstract view
.subckt gf180mcu_fd_sc_mcu7t5v0__endcap VDD VSS
.ends

* Black-box entry subcircuit for gf180mcu_fd_sc_mcu7t5v0__oai221_1 abstract view
.subckt gf180mcu_fd_sc_mcu7t5v0__oai221_1 A1 A2 B1 B2 C ZN VDD VSS
.ends

* Black-box entry subcircuit for gf180mcu_fd_sc_mcu7t5v0__and3_1 abstract view
.subckt gf180mcu_fd_sc_mcu7t5v0__and3_1 A1 A2 A3 Z VDD VSS
.ends

* Black-box entry subcircuit for gf180mcu_fd_sc_mcu7t5v0__nor4_4 abstract view
.subckt gf180mcu_fd_sc_mcu7t5v0__nor4_4 A1 A2 A3 A4 ZN VDD VSS
.ends

* Black-box entry subcircuit for gf180mcu_fd_sc_mcu7t5v0__or3_1 abstract view
.subckt gf180mcu_fd_sc_mcu7t5v0__or3_1 A1 A2 A3 Z VDD VSS
.ends

* Black-box entry subcircuit for gf180mcu_fd_sc_mcu7t5v0__aoi222_1 abstract view
.subckt gf180mcu_fd_sc_mcu7t5v0__aoi222_1 A1 A2 B1 B2 C1 C2 ZN VDD VSS
.ends

* Black-box entry subcircuit for gf180mcu_fd_sc_mcu7t5v0__buf_2 abstract view
.subckt gf180mcu_fd_sc_mcu7t5v0__buf_2 I Z VDD VSS
.ends

* Black-box entry subcircuit for gf180mcu_fd_sc_mcu7t5v0__aoi21_2 abstract view
.subckt gf180mcu_fd_sc_mcu7t5v0__aoi21_2 A1 A2 B ZN VDD VSS
.ends

* Black-box entry subcircuit for gf180mcu_fd_sc_mcu7t5v0__or2_2 abstract view
.subckt gf180mcu_fd_sc_mcu7t5v0__or2_2 A1 A2 Z VDD VSS
.ends

* Black-box entry subcircuit for gf180mcu_fd_sc_mcu7t5v0__oai21_2 abstract view
.subckt gf180mcu_fd_sc_mcu7t5v0__oai21_2 A1 A2 B ZN VDD VSS
.ends

* Black-box entry subcircuit for gf180mcu_fd_sc_mcu7t5v0__oai221_2 abstract view
.subckt gf180mcu_fd_sc_mcu7t5v0__oai221_2 A1 A2 B1 B2 C ZN VDD VSS
.ends

* Black-box entry subcircuit for gf180mcu_fd_sc_mcu7t5v0__and2_1 abstract view
.subckt gf180mcu_fd_sc_mcu7t5v0__and2_1 A1 A2 Z VDD VSS
.ends

* Black-box entry subcircuit for gf180mcu_fd_sc_mcu7t5v0__and4_1 abstract view
.subckt gf180mcu_fd_sc_mcu7t5v0__and4_1 A1 A2 A3 A4 Z VDD VSS
.ends

* Black-box entry subcircuit for gf180mcu_fd_sc_mcu7t5v0__or4_1 abstract view
.subckt gf180mcu_fd_sc_mcu7t5v0__or4_1 A1 A2 A3 A4 Z VDD VSS
.ends

* Black-box entry subcircuit for gf180mcu_fd_sc_mcu7t5v0__aoi221_2 abstract view
.subckt gf180mcu_fd_sc_mcu7t5v0__aoi221_2 A1 A2 B1 B2 C ZN VDD VSS
.ends

* Black-box entry subcircuit for gf180mcu_fd_sc_mcu7t5v0__oai222_1 abstract view
.subckt gf180mcu_fd_sc_mcu7t5v0__oai222_1 A1 A2 B1 B2 C1 C2 ZN VDD VSS
.ends

* Black-box entry subcircuit for gf180mcu_fd_sc_mcu7t5v0__oai211_2 abstract view
.subckt gf180mcu_fd_sc_mcu7t5v0__oai211_2 A1 A2 B C ZN VDD VSS
.ends

* Black-box entry subcircuit for gf180mcu_fd_sc_mcu7t5v0__nand4_1 abstract view
.subckt gf180mcu_fd_sc_mcu7t5v0__nand4_1 A1 A2 A3 A4 ZN VDD VSS
.ends

* Black-box entry subcircuit for gf180mcu_fd_sc_mcu7t5v0__nand3_2 abstract view
.subckt gf180mcu_fd_sc_mcu7t5v0__nand3_2 A1 A2 A3 ZN VDD VSS
.ends

* Black-box entry subcircuit for gf180mcu_fd_sc_mcu7t5v0__aoi211_2 abstract view
.subckt gf180mcu_fd_sc_mcu7t5v0__aoi211_2 A1 A2 B C ZN VDD VSS
.ends

* Black-box entry subcircuit for gf180mcu_fd_sc_mcu7t5v0__xnor2_1 abstract view
.subckt gf180mcu_fd_sc_mcu7t5v0__xnor2_1 A1 A2 ZN VDD VSS
.ends

* Black-box entry subcircuit for gf180mcu_fd_sc_mcu7t5v0__clkinv_2 abstract view
.subckt gf180mcu_fd_sc_mcu7t5v0__clkinv_2 I ZN VDD VSS
.ends

* Black-box entry subcircuit for gf180mcu_fd_sc_mcu7t5v0__and4_2 abstract view
.subckt gf180mcu_fd_sc_mcu7t5v0__and4_2 A1 A2 A3 A4 Z VDD VSS
.ends

* Black-box entry subcircuit for gf180mcu_fd_sc_mcu7t5v0__nor4_1 abstract view
.subckt gf180mcu_fd_sc_mcu7t5v0__nor4_1 A1 A2 A3 A4 ZN VDD VSS
.ends

* Black-box entry subcircuit for gf180mcu_fd_sc_mcu7t5v0__oai22_2 abstract view
.subckt gf180mcu_fd_sc_mcu7t5v0__oai22_2 A1 A2 B1 B2 ZN VDD VSS
.ends

* Black-box entry subcircuit for gf180mcu_fd_sc_mcu7t5v0__nand4_4 abstract view
.subckt gf180mcu_fd_sc_mcu7t5v0__nand4_4 A1 A2 A3 A4 ZN VDD VSS
.ends

* Black-box entry subcircuit for gf180mcu_fd_sc_mcu7t5v0__or4_2 abstract view
.subckt gf180mcu_fd_sc_mcu7t5v0__or4_2 A1 A2 A3 A4 Z VDD VSS
.ends

* Black-box entry subcircuit for gf180mcu_fd_sc_mcu7t5v0__tiel abstract view
.subckt gf180mcu_fd_sc_mcu7t5v0__tiel ZN VDD VSS
.ends

* Black-box entry subcircuit for gf180mcu_fd_sc_mcu7t5v0__xor3_1 abstract view
.subckt gf180mcu_fd_sc_mcu7t5v0__xor3_1 A1 A2 A3 Z VDD VSS
.ends

* Black-box entry subcircuit for gf180mcu_fd_sc_mcu7t5v0__oai32_2 abstract view
.subckt gf180mcu_fd_sc_mcu7t5v0__oai32_2 A1 A2 A3 B1 B2 ZN VDD VSS
.ends

* Black-box entry subcircuit for gf180mcu_fd_sc_mcu7t5v0__aoi221_4 abstract view
.subckt gf180mcu_fd_sc_mcu7t5v0__aoi221_4 A1 A2 B1 B2 C ZN VDD VSS
.ends

* Black-box entry subcircuit for gf180mcu_fd_sc_mcu7t5v0__aoi21_4 abstract view
.subckt gf180mcu_fd_sc_mcu7t5v0__aoi21_4 A1 A2 B ZN VDD VSS
.ends

* Black-box entry subcircuit for gf180mcu_fd_sc_mcu7t5v0__aoi211_4 abstract view
.subckt gf180mcu_fd_sc_mcu7t5v0__aoi211_4 A1 A2 B C ZN VDD VSS
.ends

* Black-box entry subcircuit for gf180mcu_fd_sc_mcu7t5v0__nand4_2 abstract view
.subckt gf180mcu_fd_sc_mcu7t5v0__nand4_2 A1 A2 A3 A4 ZN VDD VSS
.ends

* Black-box entry subcircuit for gf180mcu_fd_sc_mcu7t5v0__dffnq_1 abstract view
.subckt gf180mcu_fd_sc_mcu7t5v0__dffnq_1 D CLKN Q VDD VSS
.ends

* Black-box entry subcircuit for gf180mcu_fd_sc_mcu7t5v0__aoi22_4 abstract view
.subckt gf180mcu_fd_sc_mcu7t5v0__aoi22_4 A1 A2 B1 B2 ZN VDD VSS
.ends

* Black-box entry subcircuit for gf180mcu_fd_sc_mcu7t5v0__oai32_1 abstract view
.subckt gf180mcu_fd_sc_mcu7t5v0__oai32_1 A1 A2 A3 B1 B2 ZN VDD VSS
.ends

.subckt serv_2 io_in[0] io_in[1] io_in[2] io_in[3] io_in[4] io_oeb[0] io_oeb[1] io_oeb[2]
+ io_oeb[3] io_oeb[4] io_out[0] io_out[1] io_out[2] io_out[3] io_out[4] vdd vss
XFILLER_45_1374 vdd vss gf180mcu_fd_sc_mcu7t5v0__fill_2
XFILLER_100_138 vdd vss gf180mcu_fd_sc_mcu7t5v0__fillcap_4
XFILLER_95_851 vdd vss gf180mcu_fd_sc_mcu7t5v0__fill_1
XANTENNA__10669__A1 _05202_ vdd vss gf180mcu_fd_sc_mcu7t5v0__antenna
X_05903_ _01551_ _01552_ vdd vss gf180mcu_fd_sc_mcu7t5v0__clkbuf_2
XANTENNA__09523__A2 _04340_ vdd vss gf180mcu_fd_sc_mcu7t5v0__antenna
X_09671_ _04160_ _04433_ vdd vss gf180mcu_fd_sc_mcu7t5v0__buf_1
X_06883_ _01452_ _02522_ vdd vss gf180mcu_fd_sc_mcu7t5v0__inv_1
XANTENNA__06337__A2 _01970_ vdd vss gf180mcu_fd_sc_mcu7t5v0__antenna
XANTENNA__10023__B _04710_ vdd vss gf180mcu_fd_sc_mcu7t5v0__antenna
XANTENNA__12595__CLK net166 vdd vss gf180mcu_fd_sc_mcu7t5v0__antenna
XFILLER_55_715 vdd vss gf180mcu_fd_sc_mcu7t5v0__fillcap_4
XANTENNA__11330__A2 _05626_ vdd vss gf180mcu_fd_sc_mcu7t5v0__antenna
XFILLER_54_203 vdd vss gf180mcu_fd_sc_mcu7t5v0__fill_2
XFILLER_55_726 vdd vss gf180mcu_fd_sc_mcu7t5v0__fill_2
X_08622_ _03631_ _03758_ _03763_ _00503_ vdd vss gf180mcu_fd_sc_mcu7t5v0__aoi21_1
X_05834_ _01484_ _01485_ vdd vss gf180mcu_fd_sc_mcu7t5v0__buf_1
XFILLER_27_428 vdd vss gf180mcu_fd_sc_mcu7t5v0__fillcap_64
XFILLER_67_597 vdd vss gf180mcu_fd_sc_mcu7t5v0__fill_1
XFILLER_82_534 vdd vss gf180mcu_fd_sc_mcu7t5v0__fillcap_4
XFILLER_36_940 vdd vss gf180mcu_fd_sc_mcu7t5v0__fill_2
XFILLER_82_556 vdd vss gf180mcu_fd_sc_mcu7t5v0__fill_1
XFILLER_54_247 vdd vss gf180mcu_fd_sc_mcu7t5v0__fill_1
XFILLER_58_1713 vdd vss gf180mcu_fd_sc_mcu7t5v0__fillcap_4
X_08553_ u_cpu.rf_ram.memory\[54\]\[6\] _03710_ _03715_ vdd vss gf180mcu_fd_sc_mcu7t5v0__nand2_1
XANTENNA__09287__A1 _04165_ vdd vss gf180mcu_fd_sc_mcu7t5v0__antenna
XFILLER_82_589 vdd vss gf180mcu_fd_sc_mcu7t5v0__fill_2
XFILLER_39_1123 vdd vss gf180mcu_fd_sc_mcu7t5v0__fill_2
X_07504_ _03018_ _03015_ _03019_ _00129_ vdd vss gf180mcu_fd_sc_mcu7t5v0__oai21_1
X_08484_ _03671_ _03663_ _03672_ _00456_ vdd vss gf180mcu_fd_sc_mcu7t5v0__oai21_1
XFILLER_23_656 vdd vss gf180mcu_fd_sc_mcu7t5v0__fill_2
X_07435_ _02971_ _02966_ _02973_ _00106_ vdd vss gf180mcu_fd_sc_mcu7t5v0__oai21_1
XANTENNA__10841__A1 u_cpu.rf_ram.memory\[28\]\[5\] vdd vss gf180mcu_fd_sc_mcu7t5v0__antenna
XFILLER_17_1410 vdd vss gf180mcu_fd_sc_mcu7t5v0__fill_2
XFILLER_39_1189 vdd vss gf180mcu_fd_sc_mcu7t5v0__fill_2
XANTENNA__09039__A1 _04009_ vdd vss gf180mcu_fd_sc_mcu7t5v0__antenna
XFILLER_50_453 vdd vss gf180mcu_fd_sc_mcu7t5v0__fill_2
XFILLER_51_987 vdd vss gf180mcu_fd_sc_mcu7t5v0__fillcap_4
XFILLER_56_1470 vdd vss gf180mcu_fd_sc_mcu7t5v0__fill_1
XFILLER_91_1361 vdd vss gf180mcu_fd_sc_mcu7t5v0__fill_2
XFILLER_56_1492 vdd vss gf180mcu_fd_sc_mcu7t5v0__fill_2
XFILLER_104_1413 vdd vss gf180mcu_fd_sc_mcu7t5v0__fill_1
X_07366_ _02913_ _02914_ vdd vss gf180mcu_fd_sc_mcu7t5v0__clkbuf_1
XFILLER_52_1356 vdd vss gf180mcu_fd_sc_mcu7t5v0__fill_2
XANTENNA__11397__A2 _05671_ vdd vss gf180mcu_fd_sc_mcu7t5v0__antenna
XANTENNA__06890__C u_cpu.cpu.state.init_done vdd vss gf180mcu_fd_sc_mcu7t5v0__antenna
X_09105_ _04064_ _04065_ vdd vss gf180mcu_fd_sc_mcu7t5v0__buf_1
XFILLER_104_1446 vdd vss gf180mcu_fd_sc_mcu7t5v0__fill_2
X_06317_ _01698_ _01962_ _01963_ _01964_ vdd vss gf180mcu_fd_sc_mcu7t5v0__aoi21_1
XFILLER_108_205 vdd vss gf180mcu_fd_sc_mcu7t5v0__fill_2
XFILLER_104_1457 vdd vss gf180mcu_fd_sc_mcu7t5v0__fill_1
X_07297_ _02615_ _02541_ _02851_ vdd vss gf180mcu_fd_sc_mcu7t5v0__nand2_1
XFILLER_87_1408 vdd vss gf180mcu_fd_sc_mcu7t5v0__fill_2
X_09036_ u_cpu.rf_ram.memory\[133\]\[5\] _04019_ _04023_ vdd vss gf180mcu_fd_sc_mcu7t5v0__nand2_1
X_06248_ _01528_ _01894_ _01534_ _01895_ vdd vss gf180mcu_fd_sc_mcu7t5v0__aoi21_1
XFILLER_123_208 vdd vss gf180mcu_fd_sc_mcu7t5v0__fillcap_4
XANTENNA__11149__A2 _05515_ vdd vss gf180mcu_fd_sc_mcu7t5v0__antenna
XFILLER_11_1064 vdd vss gf180mcu_fd_sc_mcu7t5v0__fill_1
XFILLER_85_1121 vdd vss gf180mcu_fd_sc_mcu7t5v0__fill_2
XFILLER_117_783 vdd vss gf180mcu_fd_sc_mcu7t5v0__fillcap_4
XFILLER_104_400 vdd vss gf180mcu_fd_sc_mcu7t5v0__fill_2
XFILLER_65_1706 vdd vss gf180mcu_fd_sc_mcu7t5v0__fillcap_4
XFILLER_105_934 vdd vss gf180mcu_fd_sc_mcu7t5v0__fill_2
X_06179_ _01600_ _01827_ vdd vss gf180mcu_fd_sc_mcu7t5v0__buf_1
XFILLER_2_527 vdd vss gf180mcu_fd_sc_mcu7t5v0__fillcap_4
XANTENNA__08014__A2 _03359_ vdd vss gf180mcu_fd_sc_mcu7t5v0__antenna
XFILLER_117_66 vdd vss gf180mcu_fd_sc_mcu7t5v0__fillcap_4
XFILLER_78_807 vdd vss gf180mcu_fd_sc_mcu7t5v0__fill_2
XFILLER_89_144 vdd vss gf180mcu_fd_sc_mcu7t5v0__fill_1
XFILLER_85_1187 vdd vss gf180mcu_fd_sc_mcu7t5v0__fillcap_4
XFILLER_78_818 vdd vss gf180mcu_fd_sc_mcu7t5v0__fillcap_4
XANTENNA__09762__A2 _02622_ vdd vss gf180mcu_fd_sc_mcu7t5v0__antenna
XFILLER_46_1138 vdd vss gf180mcu_fd_sc_mcu7t5v0__fill_1
XFILLER_105_989 vdd vss gf180mcu_fd_sc_mcu7t5v0__fill_2
XFILLER_89_155 vdd vss gf180mcu_fd_sc_mcu7t5v0__fill_2
XANTENNA__07773__A1 _03129_ vdd vss gf180mcu_fd_sc_mcu7t5v0__antenna
XANTENNA__06576__A2 _02219_ vdd vss gf180mcu_fd_sc_mcu7t5v0__antenna
XFILLER_137_1277 vdd vss gf180mcu_fd_sc_mcu7t5v0__fill_1
XFILLER_63_1441 vdd vss gf180mcu_fd_sc_mcu7t5v0__fill_2
XANTENNA__11812__CLK net34 vdd vss gf180mcu_fd_sc_mcu7t5v0__antenna
X_09938_ _04615_ _04630_ vdd vss gf180mcu_fd_sc_mcu7t5v0__buf_1
XANTENNA__05806__I u_cpu.cpu.decode.op26 vdd vss gf180mcu_fd_sc_mcu7t5v0__antenna
XFILLER_86_851 vdd vss gf180mcu_fd_sc_mcu7t5v0__fill_2
XFILLER_4_1508 vdd vss gf180mcu_fd_sc_mcu7t5v0__fillcap_8
XFILLER_115_1564 vdd vss gf180mcu_fd_sc_mcu7t5v0__fillcap_64
XFILLER_86_862 vdd vss gf180mcu_fd_sc_mcu7t5v0__fill_2
XFILLER_92_309 vdd vss gf180mcu_fd_sc_mcu7t5v0__fill_2
XFILLER_86_873 vdd vss gf180mcu_fd_sc_mcu7t5v0__fill_2
X_09869_ _02683_ _04574_ _04575_ _00939_ vdd vss gf180mcu_fd_sc_mcu7t5v0__oai21_1
XTAP_3202 vdd vss gf180mcu_fd_sc_mcu7t5v0__filltie
XFILLER_100_661 vdd vss gf180mcu_fd_sc_mcu7t5v0__fill_2
XTAP_3213 vdd vss gf180mcu_fd_sc_mcu7t5v0__filltie
XTAP_3224 vdd vss gf180mcu_fd_sc_mcu7t5v0__filltie
X_11900_ _00422_ net89 u_cpu.rf_ram.memory\[60\]\[1\] vdd vss gf180mcu_fd_sc_mcu7t5v0__dffq_1
XTAP_3235 vdd vss gf180mcu_fd_sc_mcu7t5v0__filltie
X_12880_ _01377_ net505 u_cpu.rf_ram.memory\[25\]\[2\] vdd vss gf180mcu_fd_sc_mcu7t5v0__dffq_1
XTAP_2501 vdd vss gf180mcu_fd_sc_mcu7t5v0__filltie
XFILLER_85_394 vdd vss gf180mcu_fd_sc_mcu7t5v0__fill_2
XTAP_3246 vdd vss gf180mcu_fd_sc_mcu7t5v0__filltie
XTAP_3257 vdd vss gf180mcu_fd_sc_mcu7t5v0__filltie
XTAP_2512 vdd vss gf180mcu_fd_sc_mcu7t5v0__filltie
XANTENNA__11962__CLK net37 vdd vss gf180mcu_fd_sc_mcu7t5v0__antenna
XTAP_3268 vdd vss gf180mcu_fd_sc_mcu7t5v0__filltie
XTAP_2523 vdd vss gf180mcu_fd_sc_mcu7t5v0__filltie
XTAP_3279 vdd vss gf180mcu_fd_sc_mcu7t5v0__filltie
XTAP_2534 vdd vss gf180mcu_fd_sc_mcu7t5v0__filltie
XFILLER_73_567 vdd vss gf180mcu_fd_sc_mcu7t5v0__fill_1
X_11831_ _00353_ net11 u_cpu.rf_ram.memory\[68\]\[4\] vdd vss gf180mcu_fd_sc_mcu7t5v0__dffq_1
XTAP_2545 vdd vss gf180mcu_fd_sc_mcu7t5v0__filltie
XTAP_1800 vdd vss gf180mcu_fd_sc_mcu7t5v0__filltie
XANTENNA__11543__I _05765_ vdd vss gf180mcu_fd_sc_mcu7t5v0__antenna
XTAP_2556 vdd vss gf180mcu_fd_sc_mcu7t5v0__filltie
XFILLER_57_1212 vdd vss gf180mcu_fd_sc_mcu7t5v0__fill_2
XTAP_1811 vdd vss gf180mcu_fd_sc_mcu7t5v0__filltie
XTAP_1822 vdd vss gf180mcu_fd_sc_mcu7t5v0__filltie
XFILLER_96_1283 vdd vss gf180mcu_fd_sc_mcu7t5v0__fill_2
XTAP_2567 vdd vss gf180mcu_fd_sc_mcu7t5v0__filltie
XFILLER_54_781 vdd vss gf180mcu_fd_sc_mcu7t5v0__fill_1
XFILLER_57_1234 vdd vss gf180mcu_fd_sc_mcu7t5v0__fill_2
XFILLER_96_1294 vdd vss gf180mcu_fd_sc_mcu7t5v0__fill_2
XTAP_2578 vdd vss gf180mcu_fd_sc_mcu7t5v0__filltie
XTAP_1833 vdd vss gf180mcu_fd_sc_mcu7t5v0__filltie
XANTENNA__07828__A2 _03233_ vdd vss gf180mcu_fd_sc_mcu7t5v0__antenna
XTAP_2589 vdd vss gf180mcu_fd_sc_mcu7t5v0__filltie
X_11762_ _00284_ net393 u_cpu.rf_ram.memory\[40\]\[7\] vdd vss gf180mcu_fd_sc_mcu7t5v0__dffq_1
XFILLER_42_943 vdd vss gf180mcu_fd_sc_mcu7t5v0__fillcap_4
XTAP_1844 vdd vss gf180mcu_fd_sc_mcu7t5v0__filltie
XTAP_1855 vdd vss gf180mcu_fd_sc_mcu7t5v0__filltie
XFILLER_57_1267 vdd vss gf180mcu_fd_sc_mcu7t5v0__fill_2
XTAP_1866 vdd vss gf180mcu_fd_sc_mcu7t5v0__filltie
XFILLER_109_1346 vdd vss gf180mcu_fd_sc_mcu7t5v0__fill_2
XANTENNA__10832__A1 u_cpu.rf_ram.memory\[28\]\[2\] vdd vss gf180mcu_fd_sc_mcu7t5v0__antenna
XFILLER_13_144 vdd vss gf180mcu_fd_sc_mcu7t5v0__fillcap_64
X_10713_ _04897_ _04711_ _04727_ _05239_ vdd vss gf180mcu_fd_sc_mcu7t5v0__nand3_1
XTAP_1877 vdd vss gf180mcu_fd_sc_mcu7t5v0__filltie
XANTENNA__12318__CLK net467 vdd vss gf180mcu_fd_sc_mcu7t5v0__antenna
XFILLER_74_1570 vdd vss gf180mcu_fd_sc_mcu7t5v0__fill_2
XTAP_1888 vdd vss gf180mcu_fd_sc_mcu7t5v0__filltie
X_11693_ _00215_ net457 u_cpu.rf_ram.memory\[41\]\[7\] vdd vss gf180mcu_fd_sc_mcu7t5v0__dffq_1
XTAP_1899 vdd vss gf180mcu_fd_sc_mcu7t5v0__filltie
XFILLER_144_1259 vdd vss gf180mcu_fd_sc_mcu7t5v0__fill_1
XANTENNA__06500__A2 _02144_ vdd vss gf180mcu_fd_sc_mcu7t5v0__antenna
XFILLER_9_137 vdd vss gf180mcu_fd_sc_mcu7t5v0__fillcap_4
X_10644_ u_cpu.rf_ram.memory\[2\]\[1\] _05185_ _05187_ vdd vss gf180mcu_fd_sc_mcu7t5v0__nor2_1
XFILLER_70_1445 vdd vss gf180mcu_fd_sc_mcu7t5v0__fill_2
XFILLER_107_1070 vdd vss gf180mcu_fd_sc_mcu7t5v0__fill_2
XFILLER_31_1418 vdd vss gf180mcu_fd_sc_mcu7t5v0__fill_2
XANTENNA__11388__A2 _05670_ vdd vss gf180mcu_fd_sc_mcu7t5v0__antenna
X_10575_ _05143_ _01077_ vdd vss gf180mcu_fd_sc_mcu7t5v0__clkinv_1
XANTENNA__09450__A1 _03272_ vdd vss gf180mcu_fd_sc_mcu7t5v0__antenna
XANTENNA__08253__A2 _03518_ vdd vss gf180mcu_fd_sc_mcu7t5v0__antenna
X_12314_ _00815_ net464 u_cpu.rf_ram.memory\[35\]\[5\] vdd vss gf180mcu_fd_sc_mcu7t5v0__dffq_1
XANTENNA__12468__CLK net491 vdd vss gf180mcu_fd_sc_mcu7t5v0__antenna
XFILLER_6_855 vdd vss gf180mcu_fd_sc_mcu7t5v0__fill_2
XANTENNA__10060__A2 _04721_ vdd vss gf180mcu_fd_sc_mcu7t5v0__antenna
XFILLER_115_709 vdd vss gf180mcu_fd_sc_mcu7t5v0__fill_1
XFILLER_5_354 vdd vss gf180mcu_fd_sc_mcu7t5v0__fill_1
XFILLER_108_772 vdd vss gf180mcu_fd_sc_mcu7t5v0__fill_2
X_12245_ _00746_ net362 u_cpu.rf_ram.memory\[123\]\[5\] vdd vss gf180mcu_fd_sc_mcu7t5v0__dffq_1
XANTENNA__08005__A2 _03362_ vdd vss gf180mcu_fd_sc_mcu7t5v0__antenna
XFILLER_68_1352 vdd vss gf180mcu_fd_sc_mcu7t5v0__fill_2
XFILLER_64_1216 vdd vss gf180mcu_fd_sc_mcu7t5v0__fill_2
XFILLER_123_753 vdd vss gf180mcu_fd_sc_mcu7t5v0__fill_1
X_12176_ _00690_ net425 u_cpu.rf_ram.memory\[12\]\[5\] vdd vss gf180mcu_fd_sc_mcu7t5v0__dffq_1
XFILLER_9_1419 vdd vss gf180mcu_fd_sc_mcu7t5v0__fill_1
XANTENNA__09753__A2 _04484_ vdd vss gf180mcu_fd_sc_mcu7t5v0__antenna
XFILLER_123_764 vdd vss gf180mcu_fd_sc_mcu7t5v0__fill_2
XFILLER_64_1238 vdd vss gf180mcu_fd_sc_mcu7t5v0__fillcap_4
XFILLER_69_829 vdd vss gf180mcu_fd_sc_mcu7t5v0__fill_2
XANTENNA__06567__A2 _02210_ vdd vss gf180mcu_fd_sc_mcu7t5v0__antenna
XANTENNA__07764__A1 _03148_ vdd vss gf180mcu_fd_sc_mcu7t5v0__antenna
XFILLER_68_317 vdd vss gf180mcu_fd_sc_mcu7t5v0__fill_2
XFILLER_111_937 vdd vss gf180mcu_fd_sc_mcu7t5v0__fill_2
XANTENNA__11560__A2 _05765_ vdd vss gf180mcu_fd_sc_mcu7t5v0__antenna
XFILLER_81_1552 vdd vss gf180mcu_fd_sc_mcu7t5v0__fill_2
X_11127_ _05468_ _05501_ _05503_ _01269_ vdd vss gf180mcu_fd_sc_mcu7t5v0__oai21_1
XFILLER_111_959 vdd vss gf180mcu_fd_sc_mcu7t5v0__fill_2
XFILLER_7_1132 vdd vss gf180mcu_fd_sc_mcu7t5v0__fillcap_4
XFILLER_42_1525 vdd vss gf180mcu_fd_sc_mcu7t5v0__fill_1
XFILLER_110_458 vdd vss gf180mcu_fd_sc_mcu7t5v0__fill_2
XFILLER_77_851 vdd vss gf180mcu_fd_sc_mcu7t5v0__fill_1
XANTENNA__05870__S0 _01516_ vdd vss gf180mcu_fd_sc_mcu7t5v0__antenna
X_11058_ u_cpu.rf_ram.memory\[107\]\[0\] _05458_ _05459_ vdd vss gf180mcu_fd_sc_mcu7t5v0__nand2_1
XANTENNA__09505__A2 _04321_ vdd vss gf180mcu_fd_sc_mcu7t5v0__antenna
XFILLER_110_469 vdd vss gf180mcu_fd_sc_mcu7t5v0__fillcap_8
XFILLER_49_564 vdd vss gf180mcu_fd_sc_mcu7t5v0__fillcap_4
XFILLER_114_1063 vdd vss gf180mcu_fd_sc_mcu7t5v0__fill_1
XFILLER_92_810 vdd vss gf180mcu_fd_sc_mcu7t5v0__fill_2
XANTENNA__11312__A2 _05608_ vdd vss gf180mcu_fd_sc_mcu7t5v0__antenna
XFILLER_97_1014 vdd vss gf180mcu_fd_sc_mcu7t5v0__fill_2
XFILLER_92_821 vdd vss gf180mcu_fd_sc_mcu7t5v0__fill_2
X_10009_ _04680_ _04698_ vdd vss gf180mcu_fd_sc_mcu7t5v0__buf_1
XFILLER_64_523 vdd vss gf180mcu_fd_sc_mcu7t5v0__fillcap_8
XFILLER_64_534 vdd vss gf180mcu_fd_sc_mcu7t5v0__fillcap_4
XFILLER_91_320 vdd vss gf180mcu_fd_sc_mcu7t5v0__fill_2
XANTENNA__10520__B1 _05111_ vdd vss gf180mcu_fd_sc_mcu7t5v0__antenna
XFILLER_64_545 vdd vss gf180mcu_fd_sc_mcu7t5v0__fill_2
XFILLER_91_342 vdd vss gf180mcu_fd_sc_mcu7t5v0__fill_2
XFILLER_36_247 vdd vss gf180mcu_fd_sc_mcu7t5v0__fill_1
XANTENNA_fanout260_I net262 vdd vss gf180mcu_fd_sc_mcu7t5v0__antenna
XFILLER_75_1301 vdd vss gf180mcu_fd_sc_mcu7t5v0__fill_2
XTAP_3780 vdd vss gf180mcu_fd_sc_mcu7t5v0__filltie
XANTENNA_fanout358_I net363 vdd vss gf180mcu_fd_sc_mcu7t5v0__antenna
XTAP_3791 vdd vss gf180mcu_fd_sc_mcu7t5v0__filltie
XFILLER_75_1323 vdd vss gf180mcu_fd_sc_mcu7t5v0__fill_2
XFILLER_33_921 vdd vss gf180mcu_fd_sc_mcu7t5v0__fill_2
XANTENNA__11076__A1 _04295_ vdd vss gf180mcu_fd_sc_mcu7t5v0__antenna
XFILLER_91_397 vdd vss gf180mcu_fd_sc_mcu7t5v0__fill_2
XANTENNA__07819__A2 _03231_ vdd vss gf180mcu_fd_sc_mcu7t5v0__antenna
XFILLER_44_280 vdd vss gf180mcu_fd_sc_mcu7t5v0__fill_2
XFILLER_75_1378 vdd vss gf180mcu_fd_sc_mcu7t5v0__fill_2
XFILLER_71_1209 vdd vss gf180mcu_fd_sc_mcu7t5v0__fill_1
XANTENNA_fanout525_I net527 vdd vss gf180mcu_fd_sc_mcu7t5v0__antenna
XFILLER_92_1670 vdd vss gf180mcu_fd_sc_mcu7t5v0__fill_1
XFILLER_18_1741 vdd vss gf180mcu_fd_sc_mcu7t5v0__fill_1
XANTENNA__08492__A2 _03669_ vdd vss gf180mcu_fd_sc_mcu7t5v0__antenna
X_07220_ _02729_ _02788_ vdd vss gf180mcu_fd_sc_mcu7t5v0__buf_1
XFILLER_80_2 vdd vss gf180mcu_fd_sc_mcu7t5v0__fill_2
XFILLER_34_1031 vdd vss gf180mcu_fd_sc_mcu7t5v0__fill_1
XFILLER_53_1654 vdd vss gf180mcu_fd_sc_mcu7t5v0__fillcap_32
XFILLER_73_1091 vdd vss gf180mcu_fd_sc_mcu7t5v0__fill_2
X_07151_ _02724_ _02728_ _02731_ _00063_ vdd vss gf180mcu_fd_sc_mcu7t5v0__oai21_1
XANTENNA__08244__A2 _03515_ vdd vss gf180mcu_fd_sc_mcu7t5v0__antenna
X_06102_ _01469_ _01750_ _01751_ vdd vss gf180mcu_fd_sc_mcu7t5v0__nor2_1
XFILLER_121_1067 vdd vss gf180mcu_fd_sc_mcu7t5v0__fill_1
XFILLER_118_558 vdd vss gf180mcu_fd_sc_mcu7t5v0__fill_2
XANTENNA__06282__I _01595_ vdd vss gf180mcu_fd_sc_mcu7t5v0__antenna
X_07082_ _02678_ _00045_ vdd vss gf180mcu_fd_sc_mcu7t5v0__clkbuf_1
XANTENNA__10051__A2 _04737_ vdd vss gf180mcu_fd_sc_mcu7t5v0__antenna
XFILLER_69_1138 vdd vss gf180mcu_fd_sc_mcu7t5v0__fill_1
XANTENNA__09992__A2 _04681_ vdd vss gf180mcu_fd_sc_mcu7t5v0__antenna
XFILLER_69_1149 vdd vss gf180mcu_fd_sc_mcu7t5v0__fillcap_4
XFILLER_103_1490 vdd vss gf180mcu_fd_sc_mcu7t5v0__fill_1
X_06033_ _01678_ _01681_ _01682_ vdd vss gf180mcu_fd_sc_mcu7t5v0__nand2_1
XANTENNA__11835__CLK net105 vdd vss gf180mcu_fd_sc_mcu7t5v0__antenna
XANTENNA__10339__B1 _04865_ vdd vss gf180mcu_fd_sc_mcu7t5v0__antenna
XFILLER_86_1474 vdd vss gf180mcu_fd_sc_mcu7t5v0__fill_2
XFILLER_47_1425 vdd vss gf180mcu_fd_sc_mcu7t5v0__fill_2
XANTENNA__11000__A1 _05404_ vdd vss gf180mcu_fd_sc_mcu7t5v0__antenna
XANTENNA__07055__I0 u_arbiter.i_wb_cpu_rdt\[13\] vdd vss gf180mcu_fd_sc_mcu7t5v0__antenna
XFILLER_113_230 vdd vss gf180mcu_fd_sc_mcu7t5v0__fill_2
XANTENNA__09744__A2 _04475_ vdd vss gf180mcu_fd_sc_mcu7t5v0__antenna
XFILLER_87_604 vdd vss gf180mcu_fd_sc_mcu7t5v0__fillcap_4
Xfanout105 net109 net105 vdd vss gf180mcu_fd_sc_mcu7t5v0__dlyc_1
XANTENNA__06558__A2 _02201_ vdd vss gf180mcu_fd_sc_mcu7t5v0__antenna
Xfanout116 net117 net116 vdd vss gf180mcu_fd_sc_mcu7t5v0__dlyc_1
XFILLER_82_1349 vdd vss gf180mcu_fd_sc_mcu7t5v0__fill_2
XANTENNA__07755__A1 u_cpu.rf_ram.memory\[41\]\[2\] vdd vss gf180mcu_fd_sc_mcu7t5v0__antenna
XANTENNA__11551__A2 _05766_ vdd vss gf180mcu_fd_sc_mcu7t5v0__antenna
Xfanout127 net128 net127 vdd vss gf180mcu_fd_sc_mcu7t5v0__dlyc_1
XFILLER_59_317 vdd vss gf180mcu_fd_sc_mcu7t5v0__fill_2
Xfanout138 net140 net138 vdd vss gf180mcu_fd_sc_mcu7t5v0__dlyd_1
Xfanout149 net150 net149 vdd vss gf180mcu_fd_sc_mcu7t5v0__dlyb_1
XFILLER_101_425 vdd vss gf180mcu_fd_sc_mcu7t5v0__fill_1
XANTENNA__06231__B _01485_ vdd vss gf180mcu_fd_sc_mcu7t5v0__antenna
X_07984_ _03346_ _03347_ vdd vss gf180mcu_fd_sc_mcu7t5v0__clkbuf_2
XFILLER_86_136 vdd vss gf180mcu_fd_sc_mcu7t5v0__fill_2
XFILLER_60_1625 vdd vss gf180mcu_fd_sc_mcu7t5v0__fill_1
X_09723_ _04438_ _04459_ _04466_ _00902_ vdd vss gf180mcu_fd_sc_mcu7t5v0__oai21_1
X_06935_ u_cpu.cpu.state.o_cnt_r\[1\] _02573_ vdd vss gf180mcu_fd_sc_mcu7t5v0__clkinv_1
XFILLER_45_1193 vdd vss gf180mcu_fd_sc_mcu7t5v0__fill_2
XFILLER_60_1658 vdd vss gf180mcu_fd_sc_mcu7t5v0__fill_2
XANTENNA__11303__A2 _05611_ vdd vss gf180mcu_fd_sc_mcu7t5v0__antenna
X_09654_ _04344_ _04414_ _04421_ _00878_ vdd vss gf180mcu_fd_sc_mcu7t5v0__oai21_1
X_06866_ _02505_ u_cpu.cpu.genblk3.csr.mcause31 _02500_ _02506_ vdd vss gf180mcu_fd_sc_mcu7t5v0__aoi21_1
XFILLER_94_191 vdd vss gf180mcu_fd_sc_mcu7t5v0__fill_2
XFILLER_83_854 vdd vss gf180mcu_fd_sc_mcu7t5v0__fill_1
XANTENNA__07841__I _03244_ vdd vss gf180mcu_fd_sc_mcu7t5v0__antenna
XFILLER_3_1541 vdd vss gf180mcu_fd_sc_mcu7t5v0__fill_2
XFILLER_103_46 vdd vss gf180mcu_fd_sc_mcu7t5v0__fill_2
X_08605_ _02943_ _03751_ vdd vss gf180mcu_fd_sc_mcu7t5v0__clkbuf_1
XFILLER_55_567 vdd vss gf180mcu_fd_sc_mcu7t5v0__fill_1
X_05817_ _01467_ _01468_ vdd vss gf180mcu_fd_sc_mcu7t5v0__buf_1
XFILLER_58_1521 vdd vss gf180mcu_fd_sc_mcu7t5v0__fill_2
X_09585_ u_cpu.rf_ram.memory\[121\]\[1\] _04378_ _04380_ vdd vss gf180mcu_fd_sc_mcu7t5v0__nand2_1
X_06797_ u_cpu.rf_ram.memory\[64\]\[7\] u_cpu.rf_ram.memory\[65\]\[7\] u_cpu.rf_ram.memory\[66\]\[7\]
+ u_cpu.rf_ram.memory\[67\]\[7\] _01731_ _01732_ _02439_ vdd vss gf180mcu_fd_sc_mcu7t5v0__mux4_1
XFILLER_82_375 vdd vss gf180mcu_fd_sc_mcu7t5v0__fill_2
XTAP_1107 vdd vss gf180mcu_fd_sc_mcu7t5v0__filltie
XFILLER_97_1581 vdd vss gf180mcu_fd_sc_mcu7t5v0__fill_2
XTAP_1118 vdd vss gf180mcu_fd_sc_mcu7t5v0__filltie
XANTENNA__11067__A1 u_cpu.rf_ram.memory\[107\]\[4\] vdd vss gf180mcu_fd_sc_mcu7t5v0__antenna
XANTENNA__09969__S _04605_ vdd vss gf180mcu_fd_sc_mcu7t5v0__antenna
XTAP_1129 vdd vss gf180mcu_fd_sc_mcu7t5v0__filltie
XFILLER_36_792 vdd vss gf180mcu_fd_sc_mcu7t5v0__fill_1
X_08536_ _03679_ _03695_ _03704_ _00476_ vdd vss gf180mcu_fd_sc_mcu7t5v0__oai21_1
XFILLER_19_1527 vdd vss gf180mcu_fd_sc_mcu7t5v0__fill_2
XANTENNA__06169__S1 _01638_ vdd vss gf180mcu_fd_sc_mcu7t5v0__antenna
XANTENNA__10814__A1 _05221_ vdd vss gf180mcu_fd_sc_mcu7t5v0__antenna
XFILLER_50_250 vdd vss gf180mcu_fd_sc_mcu7t5v0__fill_1
X_08467_ u_cpu.rf_ram.memory\[58\]\[7\] _03649_ _03660_ vdd vss gf180mcu_fd_sc_mcu7t5v0__nand2_1
XANTENNA__09680__A1 _04438_ vdd vss gf180mcu_fd_sc_mcu7t5v0__antenna
XANTENNA__08483__A2 _03669_ vdd vss gf180mcu_fd_sc_mcu7t5v0__antenna
XANTENNA__05916__S1 _01564_ vdd vss gf180mcu_fd_sc_mcu7t5v0__antenna