* NGSPICE file created from serv_2.ext - technology: gf180mcuC

* Black-box entry subcircuit for gf180mcu_fd_sc_mcu7t5v0__fill_1 abstract view
.subckt gf180mcu_fd_sc_mcu7t5v0__fill_1 VDD VSS
.ends

* Black-box entry subcircuit for gf180mcu_fd_sc_mcu7t5v0__mux2_2 abstract view
.subckt gf180mcu_fd_sc_mcu7t5v0__mux2_2 I0 I1 S Z VDD VSS
.ends

* Black-box entry subcircuit for gf180mcu_fd_sc_mcu7t5v0__oai21_1 abstract view
.subckt gf180mcu_fd_sc_mcu7t5v0__oai21_1 A1 A2 B ZN VDD VSS
.ends

* Black-box entry subcircuit for gf180mcu_fd_sc_mcu7t5v0__antenna abstract view
.subckt gf180mcu_fd_sc_mcu7t5v0__antenna I VDD VSS
.ends

* Black-box entry subcircuit for gf180mcu_fd_sc_mcu7t5v0__fillcap_4 abstract view
.subckt gf180mcu_fd_sc_mcu7t5v0__fillcap_4 VDD VSS
.ends

* Black-box entry subcircuit for gf180mcu_fd_sc_mcu7t5v0__nor3_1 abstract view
.subckt gf180mcu_fd_sc_mcu7t5v0__nor3_1 A1 A2 A3 ZN VDD VSS
.ends

* Black-box entry subcircuit for gf180mcu_fd_sc_mcu7t5v0__nand2_1 abstract view
.subckt gf180mcu_fd_sc_mcu7t5v0__nand2_1 A1 A2 ZN VDD VSS
.ends

* Black-box entry subcircuit for gf180mcu_fd_sc_mcu7t5v0__fillcap_16 abstract view
.subckt gf180mcu_fd_sc_mcu7t5v0__fillcap_16 VDD VSS
.ends

* Black-box entry subcircuit for gf180mcu_fd_sc_mcu7t5v0__fill_2 abstract view
.subckt gf180mcu_fd_sc_mcu7t5v0__fill_2 VDD VSS
.ends

* Black-box entry subcircuit for gf180mcu_fd_sc_mcu7t5v0__or2_1 abstract view
.subckt gf180mcu_fd_sc_mcu7t5v0__or2_1 A1 A2 Z VDD VSS
.ends

* Black-box entry subcircuit for gf180mcu_fd_sc_mcu7t5v0__oai211_1 abstract view
.subckt gf180mcu_fd_sc_mcu7t5v0__oai211_1 A1 A2 B C ZN VDD VSS
.ends

* Black-box entry subcircuit for gf180mcu_fd_sc_mcu7t5v0__inv_1 abstract view
.subckt gf180mcu_fd_sc_mcu7t5v0__inv_1 I ZN VDD VSS
.ends

* Black-box entry subcircuit for gf180mcu_fd_sc_mcu7t5v0__nor2_1 abstract view
.subckt gf180mcu_fd_sc_mcu7t5v0__nor2_1 A1 A2 ZN VDD VSS
.ends

* Black-box entry subcircuit for gf180mcu_fd_sc_mcu7t5v0__buf_1 abstract view
.subckt gf180mcu_fd_sc_mcu7t5v0__buf_1 I Z VDD VSS
.ends

* Black-box entry subcircuit for gf180mcu_fd_sc_mcu7t5v0__dffq_1 abstract view
.subckt gf180mcu_fd_sc_mcu7t5v0__dffq_1 D CLK Q VDD VSS
.ends

* Black-box entry subcircuit for gf180mcu_fd_sc_mcu7t5v0__fillcap_8 abstract view
.subckt gf180mcu_fd_sc_mcu7t5v0__fillcap_8 VDD VSS
.ends

* Black-box entry subcircuit for gf180mcu_fd_sc_mcu7t5v0__filltie abstract view
.subckt gf180mcu_fd_sc_mcu7t5v0__filltie VDD VSS
.ends

* Black-box entry subcircuit for gf180mcu_fd_sc_mcu7t5v0__aoi21_1 abstract view
.subckt gf180mcu_fd_sc_mcu7t5v0__aoi21_1 A1 A2 B ZN VDD VSS
.ends

* Black-box entry subcircuit for gf180mcu_fd_sc_mcu7t5v0__xnor2_1 abstract view
.subckt gf180mcu_fd_sc_mcu7t5v0__xnor2_1 A1 A2 ZN VDD VSS
.ends

* Black-box entry subcircuit for gf180mcu_fd_sc_mcu7t5v0__aoi211_1 abstract view
.subckt gf180mcu_fd_sc_mcu7t5v0__aoi211_1 A1 A2 B C ZN VDD VSS
.ends

* Black-box entry subcircuit for gf180mcu_fd_sc_mcu7t5v0__oai222_1 abstract view
.subckt gf180mcu_fd_sc_mcu7t5v0__oai222_1 A1 A2 B1 B2 C1 C2 ZN VDD VSS
.ends

* Black-box entry subcircuit for gf180mcu_fd_sc_mcu7t5v0__clkinv_1 abstract view
.subckt gf180mcu_fd_sc_mcu7t5v0__clkinv_1 I ZN VDD VSS
.ends

* Black-box entry subcircuit for gf180mcu_fd_sc_mcu7t5v0__mux4_1 abstract view
.subckt gf180mcu_fd_sc_mcu7t5v0__mux4_1 I0 I1 I2 I3 S0 S1 Z VDD VSS
.ends

* Black-box entry subcircuit for gf180mcu_fd_sc_mcu7t5v0__nand4_1 abstract view
.subckt gf180mcu_fd_sc_mcu7t5v0__nand4_1 A1 A2 A3 A4 ZN VDD VSS
.ends

* Black-box entry subcircuit for gf180mcu_fd_sc_mcu7t5v0__fillcap_64 abstract view
.subckt gf180mcu_fd_sc_mcu7t5v0__fillcap_64 VDD VSS
.ends

* Black-box entry subcircuit for gf180mcu_fd_sc_mcu7t5v0__fillcap_32 abstract view
.subckt gf180mcu_fd_sc_mcu7t5v0__fillcap_32 VDD VSS
.ends

* Black-box entry subcircuit for gf180mcu_fd_sc_mcu7t5v0__aoi22_1 abstract view
.subckt gf180mcu_fd_sc_mcu7t5v0__aoi22_1 A1 A2 B1 B2 ZN VDD VSS
.ends

* Black-box entry subcircuit for gf180mcu_fd_sc_mcu7t5v0__tiel abstract view
.subckt gf180mcu_fd_sc_mcu7t5v0__tiel ZN VDD VSS
.ends

* Black-box entry subcircuit for gf180mcu_fd_sc_mcu7t5v0__endcap abstract view
.subckt gf180mcu_fd_sc_mcu7t5v0__endcap VDD VSS
.ends

* Black-box entry subcircuit for gf180mcu_fd_sc_mcu7t5v0__xor2_1 abstract view
.subckt gf180mcu_fd_sc_mcu7t5v0__xor2_1 A1 A2 Z VDD VSS
.ends

* Black-box entry subcircuit for gf180mcu_fd_sc_mcu7t5v0__aoi221_1 abstract view
.subckt gf180mcu_fd_sc_mcu7t5v0__aoi221_1 A1 A2 B1 B2 C ZN VDD VSS
.ends

* Black-box entry subcircuit for gf180mcu_fd_sc_mcu7t5v0__nand3_1 abstract view
.subckt gf180mcu_fd_sc_mcu7t5v0__nand3_1 A1 A2 A3 ZN VDD VSS
.ends

* Black-box entry subcircuit for gf180mcu_fd_sc_mcu7t5v0__oai221_1 abstract view
.subckt gf180mcu_fd_sc_mcu7t5v0__oai221_1 A1 A2 B1 B2 C ZN VDD VSS
.ends

* Black-box entry subcircuit for gf180mcu_fd_sc_mcu7t5v0__and4_1 abstract view
.subckt gf180mcu_fd_sc_mcu7t5v0__and4_1 A1 A2 A3 A4 Z VDD VSS
.ends

* Black-box entry subcircuit for gf180mcu_fd_sc_mcu7t5v0__oai22_1 abstract view
.subckt gf180mcu_fd_sc_mcu7t5v0__oai22_1 A1 A2 B1 B2 ZN VDD VSS
.ends

* Black-box entry subcircuit for gf180mcu_fd_sc_mcu7t5v0__nor4_1 abstract view
.subckt gf180mcu_fd_sc_mcu7t5v0__nor4_1 A1 A2 A3 A4 ZN VDD VSS
.ends

* Black-box entry subcircuit for gf180mcu_fd_sc_mcu7t5v0__oai31_1 abstract view
.subckt gf180mcu_fd_sc_mcu7t5v0__oai31_1 A1 A2 A3 B ZN VDD VSS
.ends

* Black-box entry subcircuit for gf180mcu_fd_sc_mcu7t5v0__and2_1 abstract view
.subckt gf180mcu_fd_sc_mcu7t5v0__and2_1 A1 A2 Z VDD VSS
.ends

* Black-box entry subcircuit for gf180mcu_fd_sc_mcu7t5v0__clkbuf_1 abstract view
.subckt gf180mcu_fd_sc_mcu7t5v0__clkbuf_1 I Z VDD VSS
.ends

* Black-box entry subcircuit for gf180mcu_fd_sc_mcu7t5v0__aoi222_1 abstract view
.subckt gf180mcu_fd_sc_mcu7t5v0__aoi222_1 A1 A2 B1 B2 C1 C2 ZN VDD VSS
.ends

* Black-box entry subcircuit for gf180mcu_fd_sc_mcu7t5v0__buf_2 abstract view
.subckt gf180mcu_fd_sc_mcu7t5v0__buf_2 I Z VDD VSS
.ends

* Black-box entry subcircuit for gf180mcu_fd_sc_mcu7t5v0__or3_1 abstract view
.subckt gf180mcu_fd_sc_mcu7t5v0__or3_1 A1 A2 A3 Z VDD VSS
.ends

* Black-box entry subcircuit for gf180mcu_fd_sc_mcu7t5v0__and3_1 abstract view
.subckt gf180mcu_fd_sc_mcu7t5v0__and3_1 A1 A2 A3 Z VDD VSS
.ends

* Black-box entry subcircuit for gf180mcu_fd_sc_mcu7t5v0__oai32_1 abstract view
.subckt gf180mcu_fd_sc_mcu7t5v0__oai32_1 A1 A2 A3 B1 B2 ZN VDD VSS
.ends

* Black-box entry subcircuit for gf180mcu_fd_sc_mcu7t5v0__or4_1 abstract view
.subckt gf180mcu_fd_sc_mcu7t5v0__or4_1 A1 A2 A3 A4 Z VDD VSS
.ends

* Black-box entry subcircuit for gf180mcu_fd_sc_mcu7t5v0__dffnq_1 abstract view
.subckt gf180mcu_fd_sc_mcu7t5v0__dffnq_1 D CLKN Q VDD VSS
.ends

* Black-box entry subcircuit for gf180mcu_fd_sc_mcu7t5v0__xor3_1 abstract view
.subckt gf180mcu_fd_sc_mcu7t5v0__xor3_1 A1 A2 A3 Z VDD VSS
.ends

.subckt serv_2 io_in[0] io_in[1] io_in[2] io_in[3] io_in[4] io_oeb[0] io_oeb[1] io_oeb[2]
+ io_oeb[3] io_oeb[4] io_out[0] io_out[1] io_out[2] io_out[3] io_out[4] vdd vss
XFILLER_95_851 vdd vss gf180mcu_fd_sc_mcu7t5v0__fill_1
X_05903_ u_arbiter.i_wb_cpu_rdt\[22\] u_arbiter.i_wb_cpu_dbus_dat\[19\] _02431_ _02438_
+ vdd vss gf180mcu_fd_sc_mcu7t5v0__mux2_2
X_09671_ _04638_ _04822_ _04830_ _01422_ vdd vss gf180mcu_fd_sc_mcu7t5v0__oai21_1
X_06883_ _02893_ _03079_ _03085_ _00378_ vdd vss gf180mcu_fd_sc_mcu7t5v0__oai21_1
XANTENNA__06337__A2 _02756_ vdd vss gf180mcu_fd_sc_mcu7t5v0__antenna
XFILLER_27_406 vdd vss gf180mcu_fd_sc_mcu7t5v0__fillcap_4
XANTENNA__07534__A1 _02717_ vdd vss gf180mcu_fd_sc_mcu7t5v0__antenna
XFILLER_54_203 vdd vss gf180mcu_fd_sc_mcu7t5v0__fillcap_4
X_05834_ _01444_ _02305_ _02393_ _02394_ vdd vss gf180mcu_fd_sc_mcu7t5v0__nor3_1
XFILLER_27_428 vdd vss gf180mcu_fd_sc_mcu7t5v0__fill_1
X_08622_ _04200_ _04211_ _00992_ vdd vss gf180mcu_fd_sc_mcu7t5v0__nand2_1
XFILLER_94_383 vdd vss gf180mcu_fd_sc_mcu7t5v0__fillcap_4
XFILLER_82_534 vdd vss gf180mcu_fd_sc_mcu7t5v0__fillcap_4
XFILLER_55_759 vdd vss gf180mcu_fd_sc_mcu7t5v0__fillcap_16
XFILLER_54_247 vdd vss gf180mcu_fd_sc_mcu7t5v0__fill_1
XANTENNA__05640__S0 _01496_ vdd vss gf180mcu_fd_sc_mcu7t5v0__antenna
XFILLER_54_258 vdd vss gf180mcu_fd_sc_mcu7t5v0__fill_2
X_08553_ _03925_ _03974_ _04150_ vdd vss gf180mcu_fd_sc_mcu7t5v0__or2_1
X_05765_ _02336_ _02319_ _02338_ _02339_ _02340_ vdd vss gf180mcu_fd_sc_mcu7t5v0__oai211_1
XFILLER_70_729 vdd vss gf180mcu_fd_sc_mcu7t5v0__fillcap_16
XFILLER_23_612 vdd vss gf180mcu_fd_sc_mcu7t5v0__fill_2
XFILLER_51_921 vdd vss gf180mcu_fd_sc_mcu7t5v0__fill_2
X_07504_ u_cpu.rf_ram.memory\[134\]\[2\] _03435_ _03438_ vdd vss gf180mcu_fd_sc_mcu7t5v0__nand2_1
XFILLER_23_623 vdd vss gf180mcu_fd_sc_mcu7t5v0__fill_2
X_08484_ u_arbiter.i_wb_cpu_rdt\[24\] u_arbiter.i_wb_cpu_rdt\[8\] _02467_ _04088_
+ vdd vss gf180mcu_fd_sc_mcu7t5v0__mux2_2
XFILLER_51_932 vdd vss gf180mcu_fd_sc_mcu7t5v0__fill_2
XANTENNA__07837__A2 _03626_ vdd vss gf180mcu_fd_sc_mcu7t5v0__antenna
XFILLER_22_111 vdd vss gf180mcu_fd_sc_mcu7t5v0__fill_2
X_05696_ u_cpu.rf_ram.regzero _02273_ vdd vss gf180mcu_fd_sc_mcu7t5v0__inv_1
XFILLER_23_656 vdd vss gf180mcu_fd_sc_mcu7t5v0__fill_2
XFILLER_51_965 vdd vss gf180mcu_fd_sc_mcu7t5v0__fill_1
X_07435_ _03314_ _03395_ _03399_ _00616_ vdd vss gf180mcu_fd_sc_mcu7t5v0__oai21_1
X_07366_ u_cpu.rf_ram.memory\[143\]\[5\] _03355_ _03361_ vdd vss gf180mcu_fd_sc_mcu7t5v0__nand2_1
XFILLER_109_706 vdd vss gf180mcu_fd_sc_mcu7t5v0__fillcap_4
X_09105_ u_cpu.rf_ram.memory\[101\]\[1\] _04503_ _04505_ vdd vss gf180mcu_fd_sc_mcu7t5v0__nand2_1
X_06317_ u_cpu.rf_ram.memory\[7\]\[4\] _02745_ _02750_ vdd vss gf180mcu_fd_sc_mcu7t5v0__nor2_1
XANTENNA__08798__B1 _04311_ vdd vss gf180mcu_fd_sc_mcu7t5v0__antenna
XANTENNA__05787__B _02292_ vdd vss gf180mcu_fd_sc_mcu7t5v0__antenna
XANTENNA__08262__A2 _03885_ vdd vss gf180mcu_fd_sc_mcu7t5v0__antenna
XFILLER_109_739 vdd vss gf180mcu_fd_sc_mcu7t5v0__fillcap_4
XFILLER_108_216 vdd vss gf180mcu_fd_sc_mcu7t5v0__fill_2
X_07297_ _02666_ _03322_ vdd vss gf180mcu_fd_sc_mcu7t5v0__buf_1
XANTENNA__10417__CLK io_in[4] vdd vss gf180mcu_fd_sc_mcu7t5v0__antenna
X_09036_ _04442_ _04463_ _04467_ _01150_ vdd vss gf180mcu_fd_sc_mcu7t5v0__oai21_1
X_06248_ _02669_ _02707_ _02708_ _00120_ vdd vss gf180mcu_fd_sc_mcu7t5v0__oai21_1
XFILLER_136_569 vdd vss gf180mcu_fd_sc_mcu7t5v0__fill_2
XFILLER_123_208 vdd vss gf180mcu_fd_sc_mcu7t5v0__fill_2
XFILLER_117_761 vdd vss gf180mcu_fd_sc_mcu7t5v0__fillcap_4
XFILLER_11_1064 vdd vss gf180mcu_fd_sc_mcu7t5v0__fill_1
XFILLER_105_912 vdd vss gf180mcu_fd_sc_mcu7t5v0__fill_2
XFILLER_117_783 vdd vss gf180mcu_fd_sc_mcu7t5v0__fill_1
XFILLER_116_260 vdd vss gf180mcu_fd_sc_mcu7t5v0__fill_2
XFILLER_105_934 vdd vss gf180mcu_fd_sc_mcu7t5v0__fill_2
XANTENNA__08014__A2 _03730_ vdd vss gf180mcu_fd_sc_mcu7t5v0__antenna
X_06179_ _02628_ _02657_ _02658_ _00101_ vdd vss gf180mcu_fd_sc_mcu7t5v0__oai21_1
XFILLER_85_1154 vdd vss gf180mcu_fd_sc_mcu7t5v0__fillcap_4
XFILLER_2_538 vdd vss gf180mcu_fd_sc_mcu7t5v0__fill_2
XFILLER_89_122 vdd vss gf180mcu_fd_sc_mcu7t5v0__fill_2
XFILLER_132_742 vdd vss gf180mcu_fd_sc_mcu7t5v0__fill_2
XANTENNA__05459__S0 _01529_ vdd vss gf180mcu_fd_sc_mcu7t5v0__antenna
XFILLER_117_66 vdd vss gf180mcu_fd_sc_mcu7t5v0__fillcap_4
XFILLER_89_144 vdd vss gf180mcu_fd_sc_mcu7t5v0__fill_1
XFILLER_78_818 vdd vss gf180mcu_fd_sc_mcu7t5v0__fill_2
XANTENNA__10567__CLK io_in[4] vdd vss gf180mcu_fd_sc_mcu7t5v0__antenna
XANTENNA__06576__A2 _02900_ vdd vss gf180mcu_fd_sc_mcu7t5v0__antenna
XANTENNA__07773__A1 _03508_ vdd vss gf180mcu_fd_sc_mcu7t5v0__antenna
XFILLER_120_926 vdd vss gf180mcu_fd_sc_mcu7t5v0__fill_2
XFILLER_132_797 vdd vss gf180mcu_fd_sc_mcu7t5v0__fill_2
XFILLER_120_937 vdd vss gf180mcu_fd_sc_mcu7t5v0__fill_2
X_09938_ _00332_ io_in[4] u_cpu.rf_ram.memory\[76\]\[7\] vdd vss gf180mcu_fd_sc_mcu7t5v0__dffq_1
XFILLER_58_520 vdd vss gf180mcu_fd_sc_mcu7t5v0__fillcap_8
XFILLER_58_542 vdd vss gf180mcu_fd_sc_mcu7t5v0__fillcap_4
XFILLER_100_650 vdd vss gf180mcu_fd_sc_mcu7t5v0__fillcap_8
X_09869_ _00263_ io_in[4] u_cpu.rf_ram.memory\[16\]\[2\] vdd vss gf180mcu_fd_sc_mcu7t5v0__dffq_1
XANTENNA__07525__A1 _03314_ vdd vss gf180mcu_fd_sc_mcu7t5v0__antenna
XANTENNA__06328__A2 _02756_ vdd vss gf180mcu_fd_sc_mcu7t5v0__antenna
XTAP_2501 vdd vss gf180mcu_fd_sc_mcu7t5v0__filltie
XFILLER_2_1221 vdd vss gf180mcu_fd_sc_mcu7t5v0__fill_2
XFILLER_45_225 vdd vss gf180mcu_fd_sc_mcu7t5v0__fill_2
XFILLER_73_534 vdd vss gf180mcu_fd_sc_mcu7t5v0__fill_2
XFILLER_93_47 vdd vss gf180mcu_fd_sc_mcu7t5v0__fillcap_4
XFILLER_73_545 vdd vss gf180mcu_fd_sc_mcu7t5v0__fill_2
XTAP_2512 vdd vss gf180mcu_fd_sc_mcu7t5v0__filltie
XTAP_2523 vdd vss gf180mcu_fd_sc_mcu7t5v0__filltie
XANTENNA__05631__S0 _01551_ vdd vss gf180mcu_fd_sc_mcu7t5v0__antenna
XFILLER_22_1182 vdd vss gf180mcu_fd_sc_mcu7t5v0__fillcap_4
XFILLER_27_951 vdd vss gf180mcu_fd_sc_mcu7t5v0__fill_2
XTAP_2534 vdd vss gf180mcu_fd_sc_mcu7t5v0__filltie
XFILLER_73_567 vdd vss gf180mcu_fd_sc_mcu7t5v0__fill_1
XTAP_2545 vdd vss gf180mcu_fd_sc_mcu7t5v0__filltie
XTAP_1800 vdd vss gf180mcu_fd_sc_mcu7t5v0__filltie
XANTENNA__09278__A1 _04448_ vdd vss gf180mcu_fd_sc_mcu7t5v0__antenna
XTAP_2556 vdd vss gf180mcu_fd_sc_mcu7t5v0__filltie
XTAP_1811 vdd vss gf180mcu_fd_sc_mcu7t5v0__filltie
XTAP_1822 vdd vss gf180mcu_fd_sc_mcu7t5v0__filltie
XFILLER_57_1223 vdd vss gf180mcu_fd_sc_mcu7t5v0__fill_1
XTAP_2567 vdd vss gf180mcu_fd_sc_mcu7t5v0__filltie
XTAP_2578 vdd vss gf180mcu_fd_sc_mcu7t5v0__filltie
XTAP_1833 vdd vss gf180mcu_fd_sc_mcu7t5v0__filltie
XTAP_2589 vdd vss gf180mcu_fd_sc_mcu7t5v0__filltie
XANTENNA__07828__A2 _03616_ vdd vss gf180mcu_fd_sc_mcu7t5v0__antenna
XTAP_1844 vdd vss gf180mcu_fd_sc_mcu7t5v0__filltie
XFILLER_42_943 vdd vss gf180mcu_fd_sc_mcu7t5v0__fill_2
XFILLER_60_239 vdd vss gf180mcu_fd_sc_mcu7t5v0__fill_2
XTAP_1855 vdd vss gf180mcu_fd_sc_mcu7t5v0__filltie
XFILLER_14_645 vdd vss gf180mcu_fd_sc_mcu7t5v0__fill_2
XTAP_1866 vdd vss gf180mcu_fd_sc_mcu7t5v0__filltie
XFILLER_13_133 vdd vss gf180mcu_fd_sc_mcu7t5v0__fill_2
XTAP_1877 vdd vss gf180mcu_fd_sc_mcu7t5v0__filltie
XFILLER_13_144 vdd vss gf180mcu_fd_sc_mcu7t5v0__fill_1
X_10713_ _01083_ io_in[4] u_cpu.cpu.ctrl.o_ibus_adr\[29\] vdd vss gf180mcu_fd_sc_mcu7t5v0__dffq_1
XTAP_1888 vdd vss gf180mcu_fd_sc_mcu7t5v0__filltie
XFILLER_13_155 vdd vss gf180mcu_fd_sc_mcu7t5v0__fill_1
XTAP_1899 vdd vss gf180mcu_fd_sc_mcu7t5v0__filltie
XFILLER_14_689 vdd vss gf180mcu_fd_sc_mcu7t5v0__fill_2
XANTENNA__06500__A2 _02851_ vdd vss gf180mcu_fd_sc_mcu7t5v0__antenna
XFILLER_41_486 vdd vss gf180mcu_fd_sc_mcu7t5v0__fill_2
XFILLER_9_137 vdd vss gf180mcu_fd_sc_mcu7t5v0__fillcap_4
X_10644_ _01017_ io_in[4] u_arbiter.i_wb_cpu_dbus_adr\[5\] vdd vss gf180mcu_fd_sc_mcu7t5v0__dffq_1
XFILLER_107_1081 vdd vss gf180mcu_fd_sc_mcu7t5v0__fillcap_4
XFILLER_10_862 vdd vss gf180mcu_fd_sc_mcu7t5v0__fillcap_4
XFILLER_127_525 vdd vss gf180mcu_fd_sc_mcu7t5v0__fill_2
X_10575_ _00948_ io_in[4] u_cpu.rf_ram.memory\[113\]\[2\] vdd vss gf180mcu_fd_sc_mcu7t5v0__dffq_1
XANTENNA__10097__CLK io_in[4] vdd vss gf180mcu_fd_sc_mcu7t5v0__antenna
XANTENNA__09450__A1 _04638_ vdd vss gf180mcu_fd_sc_mcu7t5v0__antenna
XANTENNA__08253__A2 _03885_ vdd vss gf180mcu_fd_sc_mcu7t5v0__antenna
XFILLER_10_884 vdd vss gf180mcu_fd_sc_mcu7t5v0__fill_2
XFILLER_6_833 vdd vss gf180mcu_fd_sc_mcu7t5v0__fill_2
XFILLER_115_709 vdd vss gf180mcu_fd_sc_mcu7t5v0__fill_1
XFILLER_5_354 vdd vss gf180mcu_fd_sc_mcu7t5v0__fill_1
XFILLER_6_877 vdd vss gf180mcu_fd_sc_mcu7t5v0__fill_2
XFILLER_142_517 vdd vss gf180mcu_fd_sc_mcu7t5v0__fill_1
XANTENNA__09202__A1 _04444_ vdd vss gf180mcu_fd_sc_mcu7t5v0__antenna
XANTENNA__08005__A2 _02954_ vdd vss gf180mcu_fd_sc_mcu7t5v0__antenna
XFILLER_107_293 vdd vss gf180mcu_fd_sc_mcu7t5v0__fill_2
XFILLER_123_775 vdd vss gf180mcu_fd_sc_mcu7t5v0__fillcap_4
XFILLER_123_797 vdd vss gf180mcu_fd_sc_mcu7t5v0__fill_2
XFILLER_111_948 vdd vss gf180mcu_fd_sc_mcu7t5v0__fillcap_4
X_11127_ _00058_ io_in[0] u_scanchain_local.module_data_in\[39\] vdd vss gf180mcu_fd_sc_mcu7t5v0__dffq_1
XFILLER_122_285 vdd vss gf180mcu_fd_sc_mcu7t5v0__fill_2
XFILLER_95_125 vdd vss gf180mcu_fd_sc_mcu7t5v0__fill_2
XFILLER_68_339 vdd vss gf180mcu_fd_sc_mcu7t5v0__fill_1
XFILLER_110_436 vdd vss gf180mcu_fd_sc_mcu7t5v0__fill_2
XFILLER_77_851 vdd vss gf180mcu_fd_sc_mcu7t5v0__fill_1
X_11058_ _01426_ io_in[4] u_cpu.rf_ram.memory\[23\]\[3\] vdd vss gf180mcu_fd_sc_mcu7t5v0__dffq_1
XFILLER_7_1154 vdd vss gf180mcu_fd_sc_mcu7t5v0__fillcap_4
XFILLER_67_70 vdd vss gf180mcu_fd_sc_mcu7t5v0__fill_1
XFILLER_77_862 vdd vss gf180mcu_fd_sc_mcu7t5v0__fill_1
XANTENNA__06319__A2 _02745_ vdd vss gf180mcu_fd_sc_mcu7t5v0__antenna
XANTENNA__07516__A1 _02675_ vdd vss gf180mcu_fd_sc_mcu7t5v0__antenna
XFILLER_37_715 vdd vss gf180mcu_fd_sc_mcu7t5v0__fillcap_4
XFILLER_64_501 vdd vss gf180mcu_fd_sc_mcu7t5v0__fillcap_4
XFILLER_92_821 vdd vss gf180mcu_fd_sc_mcu7t5v0__fillcap_4
X_10009_ _00403_ io_in[4] u_cpu.rf_ram.memory\[63\]\[6\] vdd vss gf180mcu_fd_sc_mcu7t5v0__dffq_1
XFILLER_64_512 vdd vss gf180mcu_fd_sc_mcu7t5v0__fillcap_4
XFILLER_114_1085 vdd vss gf180mcu_fd_sc_mcu7t5v0__fill_2
XFILLER_64_523 vdd vss gf180mcu_fd_sc_mcu7t5v0__fill_2
XFILLER_64_534 vdd vss gf180mcu_fd_sc_mcu7t5v0__fill_2
XFILLER_97_1036 vdd vss gf180mcu_fd_sc_mcu7t5v0__fillcap_4
XFILLER_92_854 vdd vss gf180mcu_fd_sc_mcu7t5v0__fill_2
XFILLER_97_1058 vdd vss gf180mcu_fd_sc_mcu7t5v0__fill_2
XFILLER_91_342 vdd vss gf180mcu_fd_sc_mcu7t5v0__fill_2
XFILLER_64_556 vdd vss gf180mcu_fd_sc_mcu7t5v0__fill_2
XFILLER_97_1069 vdd vss gf180mcu_fd_sc_mcu7t5v0__fill_1
XFILLER_92_876 vdd vss gf180mcu_fd_sc_mcu7t5v0__fill_2
XFILLER_18_962 vdd vss gf180mcu_fd_sc_mcu7t5v0__fill_1
XFILLER_64_567 vdd vss gf180mcu_fd_sc_mcu7t5v0__fill_2
XANTENNA__05622__S0 _01567_ vdd vss gf180mcu_fd_sc_mcu7t5v0__antenna
XFILLER_91_364 vdd vss gf180mcu_fd_sc_mcu7t5v0__fillcap_4
XFILLER_45_770 vdd vss gf180mcu_fd_sc_mcu7t5v0__fill_2
XANTENNA__05542__A3 _02101_ vdd vss gf180mcu_fd_sc_mcu7t5v0__antenna
XFILLER_33_921 vdd vss gf180mcu_fd_sc_mcu7t5v0__fill_2
X_05550_ _01566_ _02128_ _01480_ _02129_ vdd vss gf180mcu_fd_sc_mcu7t5v0__aoi21_1
XANTENNA__07819__A2 _03616_ vdd vss gf180mcu_fd_sc_mcu7t5v0__antenna
XFILLER_60_740 vdd vss gf180mcu_fd_sc_mcu7t5v0__fill_2
XFILLER_71_1209 vdd vss gf180mcu_fd_sc_mcu7t5v0__fillcap_8
X_05481_ _01554_ _02060_ _01607_ _02061_ vdd vss gf180mcu_fd_sc_mcu7t5v0__aoi21_1
XANTENNA__08492__A2 _04024_ vdd vss gf180mcu_fd_sc_mcu7t5v0__antenna
X_07220_ _02803_ _02976_ _03276_ vdd vss gf180mcu_fd_sc_mcu7t5v0__nand2_1
XFILLER_32_497 vdd vss gf180mcu_fd_sc_mcu7t5v0__fill_2
XFILLER_34_1031 vdd vss gf180mcu_fd_sc_mcu7t5v0__fill_1
XFILLER_73_1080 vdd vss gf180mcu_fd_sc_mcu7t5v0__fill_2
XFILLER_80_2 vdd vss gf180mcu_fd_sc_mcu7t5v0__fill_2
XFILLER_118_503 vdd vss gf180mcu_fd_sc_mcu7t5v0__fillcap_8
X_07151_ _03098_ _03237_ _03238_ _00493_ vdd vss gf180mcu_fd_sc_mcu7t5v0__oai21_1
XFILLER_34_1075 vdd vss gf180mcu_fd_sc_mcu7t5v0__fill_2
XANTENNA__09732__CLK io_in[4] vdd vss gf180mcu_fd_sc_mcu7t5v0__antenna
XFILLER_121_1034 vdd vss gf180mcu_fd_sc_mcu7t5v0__fill_1
XANTENNA__08244__A2 _02924_ vdd vss gf180mcu_fd_sc_mcu7t5v0__antenna
X_06102_ u_cpu.cpu.bufreg.c_r _02591_ _02592_ vdd vss gf180mcu_fd_sc_mcu7t5v0__xnor2_1
XFILLER_121_1067 vdd vss gf180mcu_fd_sc_mcu7t5v0__fill_1
X_07082_ u_cpu.rf_ram.memory\[56\]\[2\] _03197_ _03200_ vdd vss gf180mcu_fd_sc_mcu7t5v0__nand2_1
XFILLER_69_1138 vdd vss gf180mcu_fd_sc_mcu7t5v0__fill_1
XFILLER_105_208 vdd vss gf180mcu_fd_sc_mcu7t5v0__fill_2
X_06033_ _02535_ _00078_ vdd vss gf180mcu_fd_sc_mcu7t5v0__inv_1
XANTENNA__06007__A1 _02418_ vdd vss gf180mcu_fd_sc_mcu7t5v0__antenna
XANTENNA__09882__CLK io_in[4] vdd vss gf180mcu_fd_sc_mcu7t5v0__antenna
XFILLER_114_775 vdd vss gf180mcu_fd_sc_mcu7t5v0__fill_2
XFILLER_99_475 vdd vss gf180mcu_fd_sc_mcu7t5v0__fill_2
XANTENNA__06558__A2 _02883_ vdd vss gf180mcu_fd_sc_mcu7t5v0__antenna
XANTENNA__07755__A1 _03508_ vdd vss gf180mcu_fd_sc_mcu7t5v0__antenna
XFILLER_101_403 vdd vss gf180mcu_fd_sc_mcu7t5v0__fill_2
XFILLER_114_797 vdd vss gf180mcu_fd_sc_mcu7t5v0__fillcap_4
XFILLER_59_328 vdd vss gf180mcu_fd_sc_mcu7t5v0__fillcap_4
XFILLER_141_594 vdd vss gf180mcu_fd_sc_mcu7t5v0__fill_2
XFILLER_101_425 vdd vss gf180mcu_fd_sc_mcu7t5v0__fill_1
X_07984_ _03705_ _03710_ _03717_ _00848_ vdd vss gf180mcu_fd_sc_mcu7t5v0__oai21_1
XFILLER_80_1040 vdd vss gf180mcu_fd_sc_mcu7t5v0__fill_2
XFILLER_80_1051 vdd vss gf180mcu_fd_sc_mcu7t5v0__fill_2
X_09723_ _00117_ io_in[4] u_cpu.rf_ram.memory\[81\]\[5\] vdd vss gf180mcu_fd_sc_mcu7t5v0__dffq_1
XFILLER_28_704 vdd vss gf180mcu_fd_sc_mcu7t5v0__fill_2
X_06935_ _03098_ _03117_ _03118_ _00397_ vdd vss gf180mcu_fd_sc_mcu7t5v0__oai21_1
XFILLER_74_309 vdd vss gf180mcu_fd_sc_mcu7t5v0__fill_2
XANTENNA__07507__A1 _03314_ vdd vss gf180mcu_fd_sc_mcu7t5v0__antenna
XFILLER_41_1035 vdd vss gf180mcu_fd_sc_mcu7t5v0__fill_2
XFILLER_110_970 vdd vss gf180mcu_fd_sc_mcu7t5v0__fill_2
XFILLER_67_361 vdd vss gf180mcu_fd_sc_mcu7t5v0__fill_2
XFILLER_68_895 vdd vss gf180mcu_fd_sc_mcu7t5v0__fillcap_4
XFILLER_55_523 vdd vss gf180mcu_fd_sc_mcu7t5v0__fill_2
X_09654_ _02626_ _02838_ _04821_ vdd vss gf180mcu_fd_sc_mcu7t5v0__nand2_1
X_06866_ u_cpu.rf_ram.memory\[66\]\[6\] _03069_ _03076_ vdd vss gf180mcu_fd_sc_mcu7t5v0__nand2_1
XFILLER_103_24 vdd vss gf180mcu_fd_sc_mcu7t5v0__fill_1
XFILLER_94_191 vdd vss gf180mcu_fd_sc_mcu7t5v0__fill_1
XANTENNA__08180__A1 u_arbiter.i_wb_cpu_dbus_dat\[8\] vdd vss gf180mcu_fd_sc_mcu7t5v0__antenna
XFILLER_83_854 vdd vss gf180mcu_fd_sc_mcu7t5v0__fill_1
X_08605_ _04186_ _04187_ _03912_ _04195_ _04196_ vdd vss gf180mcu_fd_sc_mcu7t5v0__aoi211_1
XFILLER_55_567 vdd vss gf180mcu_fd_sc_mcu7t5v0__fill_1
XANTENNA__05613__S0 _01495_ vdd vss gf180mcu_fd_sc_mcu7t5v0__antenna
XFILLER_103_57 vdd vss gf180mcu_fd_sc_mcu7t5v0__fillcap_4
X_05817_ _01467_ _02369_ _02382_ _00009_ vdd vss gf180mcu_fd_sc_mcu7t5v0__oai21_1
X_09585_ _04622_ _04782_ _04783_ _01383_ vdd vss gf180mcu_fd_sc_mcu7t5v0__oai21_1
XFILLER_27_269 vdd vss gf180mcu_fd_sc_mcu7t5v0__fill_2
X_06797_ _02618_ _02674_ _03037_ vdd vss gf180mcu_fd_sc_mcu7t5v0__nor2_1
XFILLER_36_770 vdd vss gf180mcu_fd_sc_mcu7t5v0__fill_1
XTAP_1107 vdd vss gf180mcu_fd_sc_mcu7t5v0__filltie
XFILLER_70_515 vdd vss gf180mcu_fd_sc_mcu7t5v0__fill_2
XANTENNA__06730__A2 _02998_ vdd vss gf180mcu_fd_sc_mcu7t5v0__antenna
XTAP_1118 vdd vss gf180mcu_fd_sc_mcu7t5v0__filltie
XTAP_1129 vdd vss gf180mcu_fd_sc_mcu7t5v0__filltie
X_08536_ u_cpu.cpu.immdec.imm30_25\[4\] _04102_ _04124_ u_cpu.cpu.immdec.imm30_25\[5\]
+ _04131_ _03959_ _04135_ vdd vss gf180mcu_fd_sc_mcu7t5v0__oai222_1
X_05748_ u_cpu.cpu.state.o_cnt\[2\] _02291_ u_cpu.cpu.mem_bytecnt\[1\] _02323_ vdd
+ vss gf180mcu_fd_sc_mcu7t5v0__aoi21_1
XFILLER_23_442 vdd vss gf180mcu_fd_sc_mcu7t5v0__fill_2
XFILLER_24_976 vdd vss gf180mcu_fd_sc_mcu7t5v0__fill_2
X_08467_ u_cpu.cpu.immdec.imm24_20\[2\] _04073_ vdd vss gf180mcu_fd_sc_mcu7t5v0__clkinv_1
XFILLER_50_250 vdd vss gf180mcu_fd_sc_mcu7t5v0__fillcap_4
X_05679_ _02247_ _02256_ _02257_ vdd vss gf180mcu_fd_sc_mcu7t5v0__nand2_1
XANTENNA__08483__A2 _03918_ vdd vss gf180mcu_fd_sc_mcu7t5v0__antenna
XANTENNA__05297__A2 _01869_ vdd vss gf180mcu_fd_sc_mcu7t5v0__antenna
XANTENNA__06494__A1 _02685_ vdd vss gf180mcu_fd_sc_mcu7t5v0__antenna
X_07418_ u_cpu.rf_ram.memory\[39\]\[4\] _03385_ _03390_ vdd vss gf180mcu_fd_sc_mcu7t5v0__nand2_1
X_08398_ _04011_ _04017_ _04018_ vdd vss gf180mcu_fd_sc_mcu7t5v0__nor2_1
XFILLER_91_1191 vdd vss gf180mcu_fd_sc_mcu7t5v0__fill_2
XFILLER_11_659 vdd vss gf180mcu_fd_sc_mcu7t5v0__fill_1
XFILLER_136_300 vdd vss gf180mcu_fd_sc_mcu7t5v0__fillcap_4
X_07349_ _03318_ _03345_ _03351_ _00578_ vdd vss gf180mcu_fd_sc_mcu7t5v0__oai21_1
XANTENNA__09432__A1 _04638_ vdd vss gf180mcu_fd_sc_mcu7t5v0__antenna
XANTENNA__08235__A2 _03835_ vdd vss gf180mcu_fd_sc_mcu7t5v0__antenna
XANTENNA__07288__I _02651_ vdd vss gf180mcu_fd_sc_mcu7t5v0__antenna
XFILLER_100_1107 vdd vss gf180mcu_fd_sc_mcu7t5v0__fill_1
XANTENNA__05310__B _01519_ vdd vss gf180mcu_fd_sc_mcu7t5v0__antenna
X_10360_ _00020_ io_in[4] u_cpu.rf_ram_if.rdata1\[5\] vdd vss gf180mcu_fd_sc_mcu7t5v0__dffq_1
XANTENNA__06192__I _02631_ vdd vss gf180mcu_fd_sc_mcu7t5v0__antenna
XFILLER_136_355 vdd vss gf180mcu_fd_sc_mcu7t5v0__fill_2
XANTENNA__07994__A1 _03697_ vdd vss gf180mcu_fd_sc_mcu7t5v0__antenna
X_09019_ u_cpu.rf_ram.memory\[95\]\[4\] _04453_ _04458_ vdd vss gf180mcu_fd_sc_mcu7t5v0__nand2_1
XFILLER_3_836 vdd vss gf180mcu_fd_sc_mcu7t5v0__fill_2
X_10291_ _00677_ io_in[4] u_cpu.rf_ram.memory\[130\]\[0\] vdd vss gf180mcu_fd_sc_mcu7t5v0__dffq_1
XFILLER_117_591 vdd vss gf180mcu_fd_sc_mcu7t5v0__fill_2
XFILLER_105_731 vdd vss gf180mcu_fd_sc_mcu7t5v0__fill_2
XANTENNA__06920__I _02651_ vdd vss gf180mcu_fd_sc_mcu7t5v0__antenna
XFILLER_105_775 vdd vss gf180mcu_fd_sc_mcu7t5v0__fill_2
XANTENNA__06549__A2 _02883_ vdd vss gf180mcu_fd_sc_mcu7t5v0__antenna
XFILLER_78_615 vdd vss gf180mcu_fd_sc_mcu7t5v0__fill_2
XFILLER_132_583 vdd vss gf180mcu_fd_sc_mcu7t5v0__fill_2
XFILLER_59_851 vdd vss gf180mcu_fd_sc_mcu7t5v0__fill_1
XFILLER_19_704 vdd vss gf180mcu_fd_sc_mcu7t5v0__fill_2
XANTENNA__09499__A1 _04723_ vdd vss gf180mcu_fd_sc_mcu7t5v0__antenna
XFILLER_65_309 vdd vss gf180mcu_fd_sc_mcu7t5v0__fill_2
XFILLER_59_884 vdd vss gf180mcu_fd_sc_mcu7t5v0__fillcap_4
XFILLER_58_361 vdd vss gf180mcu_fd_sc_mcu7t5v0__fill_2
XFILLER_46_523 vdd vss gf180mcu_fd_sc_mcu7t5v0__fill_2
XFILLER_46_534 vdd vss gf180mcu_fd_sc_mcu7t5v0__fill_1
XANTENNA__04980__A1 _01464_ vdd vss gf180mcu_fd_sc_mcu7t5v0__antenna
XFILLER_37_62 vdd vss gf180mcu_fd_sc_mcu7t5v0__fill_2
XFILLER_18_247 vdd vss gf180mcu_fd_sc_mcu7t5v0__fill_1
XANTENNA__08171__A1 u_arbiter.i_wb_cpu_dbus_dat\[5\] vdd vss gf180mcu_fd_sc_mcu7t5v0__antenna
XFILLER_37_73 vdd vss gf180mcu_fd_sc_mcu7t5v0__fill_1
XANTENNA__08171__B2 _02922_ vdd vss gf180mcu_fd_sc_mcu7t5v0__antenna
XANTENNA__05604__S0 _01508_ vdd vss gf180mcu_fd_sc_mcu7t5v0__antenna
XTAP_2320 vdd vss gf180mcu_fd_sc_mcu7t5v0__filltie
XFILLER_37_84 vdd vss gf180mcu_fd_sc_mcu7t5v0__fill_1
XFILLER_74_876 vdd vss gf180mcu_fd_sc_mcu7t5v0__fill_2
XFILLER_37_95 vdd vss gf180mcu_fd_sc_mcu7t5v0__fill_2
XTAP_2331 vdd vss gf180mcu_fd_sc_mcu7t5v0__filltie
XFILLER_46_589 vdd vss gf180mcu_fd_sc_mcu7t5v0__fill_2
XFILLER_74_898 vdd vss gf180mcu_fd_sc_mcu7t5v0__fill_2
XTAP_2342 vdd vss gf180mcu_fd_sc_mcu7t5v0__filltie
XFILLER_27_770 vdd vss gf180mcu_fd_sc_mcu7t5v0__fill_2
XANTENNA__06721__A2 _02988_ vdd vss gf180mcu_fd_sc_mcu7t5v0__antenna
XTAP_2353 vdd vss gf180mcu_fd_sc_mcu7t5v0__filltie
XTAP_2364 vdd vss gf180mcu_fd_sc_mcu7t5v0__filltie
XFILLER_27_792 vdd vss gf180mcu_fd_sc_mcu7t5v0__fill_2
XANTENNA__05080__S1 _01532_ vdd vss gf180mcu_fd_sc_mcu7t5v0__antenna
XFILLER_61_537 vdd vss gf180mcu_fd_sc_mcu7t5v0__fill_1
XTAP_2375 vdd vss gf180mcu_fd_sc_mcu7t5v0__filltie
XFILLER_33_239 vdd vss gf180mcu_fd_sc_mcu7t5v0__fill_2
XTAP_1630 vdd vss gf180mcu_fd_sc_mcu7t5v0__filltie
XTAP_1641 vdd vss gf180mcu_fd_sc_mcu7t5v0__filltie
XTAP_2386 vdd vss gf180mcu_fd_sc_mcu7t5v0__filltie
XTAP_2397 vdd vss gf180mcu_fd_sc_mcu7t5v0__filltie
XTAP_1652 vdd vss gf180mcu_fd_sc_mcu7t5v0__filltie
XTAP_1663 vdd vss gf180mcu_fd_sc_mcu7t5v0__filltie
XFILLER_109_1143 vdd vss gf180mcu_fd_sc_mcu7t5v0__fill_1
XFILLER_18_1026 vdd vss gf180mcu_fd_sc_mcu7t5v0__fill_2
XANTENNA__09755__CLK io_in[4] vdd vss gf180mcu_fd_sc_mcu7t5v0__antenna
XTAP_1674 vdd vss gf180mcu_fd_sc_mcu7t5v0__filltie
XANTENNA__09671__A1 _04638_ vdd vss gf180mcu_fd_sc_mcu7t5v0__antenna
XANTENNA__08474__A2 _03908_ vdd vss gf180mcu_fd_sc_mcu7t5v0__antenna
XTAP_1685 vdd vss gf180mcu_fd_sc_mcu7t5v0__filltie
XTAP_1696 vdd vss gf180mcu_fd_sc_mcu7t5v0__filltie
XFILLER_109_1176 vdd vss gf180mcu_fd_sc_mcu7t5v0__fill_2
XANTENNA__06485__A1 _02782_ vdd vss gf180mcu_fd_sc_mcu7t5v0__antenna
XFILLER_41_283 vdd vss gf180mcu_fd_sc_mcu7t5v0__fill_1
XFILLER_30_957 vdd vss gf180mcu_fd_sc_mcu7t5v0__fill_1
XANTENNA__10732__CLK io_in[4] vdd vss gf180mcu_fd_sc_mcu7t5v0__antenna
X_10627_ _01000_ io_in[4] u_cpu.rf_ram.memory\[32\]\[3\] vdd vss gf180mcu_fd_sc_mcu7t5v0__dffq_1
XANTENNA__08226__A2 _03807_ vdd vss gf180mcu_fd_sc_mcu7t5v0__antenna
XFILLER_128_889 vdd vss gf180mcu_fd_sc_mcu7t5v0__fill_1
X_10558_ _00931_ io_in[4] u_arbiter.i_wb_cpu_dbus_dat\[17\] vdd vss gf180mcu_fd_sc_mcu7t5v0__dffq_1
XANTENNA__06788__A2 _03028_ vdd vss gf180mcu_fd_sc_mcu7t5v0__antenna
XFILLER_142_314 vdd vss gf180mcu_fd_sc_mcu7t5v0__fillcap_4
XFILLER_115_528 vdd vss gf180mcu_fd_sc_mcu7t5v0__fill_1
XFILLER_143_848 vdd vss gf180mcu_fd_sc_mcu7t5v0__fillcap_4
X_10489_ _00862_ io_in[4] u_cpu.rf_ram.memory\[8\]\[4\] vdd vss gf180mcu_fd_sc_mcu7t5v0__dffq_1
XFILLER_142_347 vdd vss gf180mcu_fd_sc_mcu7t5v0__fill_1
XANTENNA__05460__A2 _02039_ vdd vss gf180mcu_fd_sc_mcu7t5v0__antenna
XANTENNA__10882__CLK io_in[4] vdd vss gf180mcu_fd_sc_mcu7t5v0__antenna
XFILLER_29_1122 vdd vss gf180mcu_fd_sc_mcu7t5v0__fillcap_4
XFILLER_130_509 vdd vss gf180mcu_fd_sc_mcu7t5v0__fillcap_8
XFILLER_69_604 vdd vss gf180mcu_fd_sc_mcu7t5v0__fill_2
XANTENNA__07737__A1 _03508_ vdd vss gf180mcu_fd_sc_mcu7t5v0__antenna
XFILLER_111_701 vdd vss gf180mcu_fd_sc_mcu7t5v0__fill_2
XFILLER_9_1216 vdd vss gf180mcu_fd_sc_mcu7t5v0__fillcap_8
XFILLER_123_572 vdd vss gf180mcu_fd_sc_mcu7t5v0__fill_1
XFILLER_111_712 vdd vss gf180mcu_fd_sc_mcu7t5v0__fill_1
XFILLER_116_1114 vdd vss gf180mcu_fd_sc_mcu7t5v0__fill_2
XANTENNA__08934__B1 _03909_ vdd vss gf180mcu_fd_sc_mcu7t5v0__antenna
XFILLER_97_946 vdd vss gf180mcu_fd_sc_mcu7t5v0__fill_2
XFILLER_29_1177 vdd vss gf180mcu_fd_sc_mcu7t5v0__fill_2
XFILLER_68_136 vdd vss gf180mcu_fd_sc_mcu7t5v0__fill_1
XANTENNA__10112__CLK io_in[4] vdd vss gf180mcu_fd_sc_mcu7t5v0__antenna
X_04981_ _01504_ _01566_ vdd vss gf180mcu_fd_sc_mcu7t5v0__buf_1
XFILLER_110_266 vdd vss gf180mcu_fd_sc_mcu7t5v0__fill_2
XFILLER_49_361 vdd vss gf180mcu_fd_sc_mcu7t5v0__fill_2
XANTENNA__06960__A2 _03127_ vdd vss gf180mcu_fd_sc_mcu7t5v0__antenna
X_06720_ _02893_ _02988_ _02994_ _00306_ vdd vss gf180mcu_fd_sc_mcu7t5v0__oai21_1
XFILLER_83_139 vdd vss gf180mcu_fd_sc_mcu7t5v0__fill_2
XANTENNA__08162__A1 u_arbiter.i_wb_cpu_dbus_dat\[4\] vdd vss gf180mcu_fd_sc_mcu7t5v0__antenna
XFILLER_65_854 vdd vss gf180mcu_fd_sc_mcu7t5v0__fill_1
XFILLER_64_342 vdd vss gf180mcu_fd_sc_mcu7t5v0__fill_2