* NGSPICE file created from serv_0.ext - technology: gf180mcuC

* Black-box entry subcircuit for gf180mcu_fd_sc_mcu7t5v0__fill_1 abstract view
.subckt gf180mcu_fd_sc_mcu7t5v0__fill_1 VDD VSS
.ends

* Black-box entry subcircuit for gf180mcu_fd_sc_mcu7t5v0__dffq_1 abstract view
.subckt gf180mcu_fd_sc_mcu7t5v0__dffq_1 D CLK Q VDD VSS
.ends

* Black-box entry subcircuit for gf180mcu_fd_sc_mcu7t5v0__fillcap_4 abstract view
.subckt gf180mcu_fd_sc_mcu7t5v0__fillcap_4 VDD VSS
.ends

* Black-box entry subcircuit for gf180mcu_fd_sc_mcu7t5v0__nand2_1 abstract view
.subckt gf180mcu_fd_sc_mcu7t5v0__nand2_1 A1 A2 ZN VDD VSS
.ends

* Black-box entry subcircuit for gf180mcu_fd_sc_mcu7t5v0__fill_2 abstract view
.subckt gf180mcu_fd_sc_mcu7t5v0__fill_2 VDD VSS
.ends

* Black-box entry subcircuit for gf180mcu_fd_sc_mcu7t5v0__antenna abstract view
.subckt gf180mcu_fd_sc_mcu7t5v0__antenna I VDD VSS
.ends

* Black-box entry subcircuit for gf180mcu_fd_sc_mcu7t5v0__fillcap_64 abstract view
.subckt gf180mcu_fd_sc_mcu7t5v0__fillcap_64 VDD VSS
.ends

* Black-box entry subcircuit for gf180mcu_fd_sc_mcu7t5v0__aoi211_1 abstract view
.subckt gf180mcu_fd_sc_mcu7t5v0__aoi211_1 A1 A2 B C ZN VDD VSS
.ends

* Black-box entry subcircuit for gf180mcu_fd_sc_mcu7t5v0__nor2_1 abstract view
.subckt gf180mcu_fd_sc_mcu7t5v0__nor2_1 A1 A2 ZN VDD VSS
.ends

* Black-box entry subcircuit for gf180mcu_fd_sc_mcu7t5v0__filltie abstract view
.subckt gf180mcu_fd_sc_mcu7t5v0__filltie VDD VSS
.ends

* Black-box entry subcircuit for gf180mcu_fd_sc_mcu7t5v0__sdffq_1 abstract view
.subckt gf180mcu_fd_sc_mcu7t5v0__sdffq_1 D SE SI CLK Q VDD VSS
.ends

* Black-box entry subcircuit for gf180mcu_fd_sc_mcu7t5v0__fillcap_32 abstract view
.subckt gf180mcu_fd_sc_mcu7t5v0__fillcap_32 VDD VSS
.ends

* Black-box entry subcircuit for gf180mcu_fd_sc_mcu7t5v0__mux2_2 abstract view
.subckt gf180mcu_fd_sc_mcu7t5v0__mux2_2 I0 I1 S Z VDD VSS
.ends

* Black-box entry subcircuit for gf180mcu_fd_sc_mcu7t5v0__aoi21_1 abstract view
.subckt gf180mcu_fd_sc_mcu7t5v0__aoi21_1 A1 A2 B ZN VDD VSS
.ends

* Black-box entry subcircuit for gf180mcu_fd_sc_mcu7t5v0__clkinv_1 abstract view
.subckt gf180mcu_fd_sc_mcu7t5v0__clkinv_1 I ZN VDD VSS
.ends

* Black-box entry subcircuit for gf180mcu_fd_sc_mcu7t5v0__aoi22_1 abstract view
.subckt gf180mcu_fd_sc_mcu7t5v0__aoi22_1 A1 A2 B1 B2 ZN VDD VSS
.ends

* Black-box entry subcircuit for gf180mcu_fd_sc_mcu7t5v0__fillcap_8 abstract view
.subckt gf180mcu_fd_sc_mcu7t5v0__fillcap_8 VDD VSS
.ends

* Black-box entry subcircuit for gf180mcu_fd_sc_mcu7t5v0__dlyc_1 abstract view
.subckt gf180mcu_fd_sc_mcu7t5v0__dlyc_1 I Z VDD VSS
.ends

* Black-box entry subcircuit for gf180mcu_fd_sc_mcu7t5v0__dlyb_1 abstract view
.subckt gf180mcu_fd_sc_mcu7t5v0__dlyb_1 I Z VDD VSS
.ends

* Black-box entry subcircuit for gf180mcu_fd_sc_mcu7t5v0__fillcap_16 abstract view
.subckt gf180mcu_fd_sc_mcu7t5v0__fillcap_16 VDD VSS
.ends

* Black-box entry subcircuit for gf180mcu_fd_sc_mcu7t5v0__buf_1 abstract view
.subckt gf180mcu_fd_sc_mcu7t5v0__buf_1 I Z VDD VSS
.ends

* Black-box entry subcircuit for gf180mcu_fd_sc_mcu7t5v0__clkbuf_1 abstract view
.subckt gf180mcu_fd_sc_mcu7t5v0__clkbuf_1 I Z VDD VSS
.ends

* Black-box entry subcircuit for gf180mcu_fd_sc_mcu7t5v0__oai21_4 abstract view
.subckt gf180mcu_fd_sc_mcu7t5v0__oai21_4 A1 A2 B ZN VDD VSS
.ends

* Black-box entry subcircuit for gf180mcu_fd_sc_mcu7t5v0__and2_1 abstract view
.subckt gf180mcu_fd_sc_mcu7t5v0__and2_1 A1 A2 Z VDD VSS
.ends

* Black-box entry subcircuit for gf180mcu_fd_sc_mcu7t5v0__endcap abstract view
.subckt gf180mcu_fd_sc_mcu7t5v0__endcap VDD VSS
.ends

* Black-box entry subcircuit for gf180mcu_fd_sc_mcu7t5v0__oai21_1 abstract view
.subckt gf180mcu_fd_sc_mcu7t5v0__oai21_1 A1 A2 B ZN VDD VSS
.ends

* Black-box entry subcircuit for gf180mcu_fd_sc_mcu7t5v0__nor2_2 abstract view
.subckt gf180mcu_fd_sc_mcu7t5v0__nor2_2 A1 A2 ZN VDD VSS
.ends

* Black-box entry subcircuit for gf180mcu_fd_sc_mcu7t5v0__nand3_1 abstract view
.subckt gf180mcu_fd_sc_mcu7t5v0__nand3_1 A1 A2 A3 ZN VDD VSS
.ends

* Black-box entry subcircuit for gf180mcu_fd_sc_mcu7t5v0__clkbuf_3 abstract view
.subckt gf180mcu_fd_sc_mcu7t5v0__clkbuf_3 I Z VDD VSS
.ends

* Black-box entry subcircuit for gf180mcu_fd_sc_mcu7t5v0__nor3_1 abstract view
.subckt gf180mcu_fd_sc_mcu7t5v0__nor3_1 A1 A2 A3 ZN VDD VSS
.ends

* Black-box entry subcircuit for gf180mcu_fd_sc_mcu7t5v0__dffq_2 abstract view
.subckt gf180mcu_fd_sc_mcu7t5v0__dffq_2 D CLK Q VDD VSS
.ends

* Black-box entry subcircuit for gf180mcu_fd_sc_mcu7t5v0__oai221_1 abstract view
.subckt gf180mcu_fd_sc_mcu7t5v0__oai221_1 A1 A2 B1 B2 C ZN VDD VSS
.ends

* Black-box entry subcircuit for gf180mcu_fd_sc_mcu7t5v0__buf_2 abstract view
.subckt gf180mcu_fd_sc_mcu7t5v0__buf_2 I Z VDD VSS
.ends

* Black-box entry subcircuit for gf180mcu_fd_sc_mcu7t5v0__aoi221_1 abstract view
.subckt gf180mcu_fd_sc_mcu7t5v0__aoi221_1 A1 A2 B1 B2 C ZN VDD VSS
.ends

* Black-box entry subcircuit for gf180mcu_fd_sc_mcu7t5v0__clkbuf_2 abstract view
.subckt gf180mcu_fd_sc_mcu7t5v0__clkbuf_2 I Z VDD VSS
.ends

* Black-box entry subcircuit for gf180mcu_fd_sc_mcu7t5v0__aoi21_2 abstract view
.subckt gf180mcu_fd_sc_mcu7t5v0__aoi21_2 A1 A2 B ZN VDD VSS
.ends

* Black-box entry subcircuit for gf180mcu_fd_sc_mcu7t5v0__nand2_2 abstract view
.subckt gf180mcu_fd_sc_mcu7t5v0__nand2_2 A1 A2 ZN VDD VSS
.ends

* Black-box entry subcircuit for gf180mcu_fd_sc_mcu7t5v0__and3_1 abstract view
.subckt gf180mcu_fd_sc_mcu7t5v0__and3_1 A1 A2 A3 Z VDD VSS
.ends

* Black-box entry subcircuit for gf180mcu_fd_sc_mcu7t5v0__xor3_1 abstract view
.subckt gf180mcu_fd_sc_mcu7t5v0__xor3_1 A1 A2 A3 Z VDD VSS
.ends

* Black-box entry subcircuit for gf180mcu_fd_sc_mcu7t5v0__aoi21_4 abstract view
.subckt gf180mcu_fd_sc_mcu7t5v0__aoi21_4 A1 A2 B ZN VDD VSS
.ends

* Black-box entry subcircuit for gf180mcu_fd_sc_mcu7t5v0__nor4_1 abstract view
.subckt gf180mcu_fd_sc_mcu7t5v0__nor4_1 A1 A2 A3 A4 ZN VDD VSS
.ends

* Black-box entry subcircuit for gf180mcu_fd_sc_mcu7t5v0__oai31_1 abstract view
.subckt gf180mcu_fd_sc_mcu7t5v0__oai31_1 A1 A2 A3 B ZN VDD VSS
.ends

* Black-box entry subcircuit for gf180mcu_fd_sc_mcu7t5v0__or4_1 abstract view
.subckt gf180mcu_fd_sc_mcu7t5v0__or4_1 A1 A2 A3 A4 Z VDD VSS
.ends

* Black-box entry subcircuit for gf180mcu_fd_sc_mcu7t5v0__oai211_1 abstract view
.subckt gf180mcu_fd_sc_mcu7t5v0__oai211_1 A1 A2 B C ZN VDD VSS
.ends

* Black-box entry subcircuit for gf180mcu_fd_sc_mcu7t5v0__aoi221_2 abstract view
.subckt gf180mcu_fd_sc_mcu7t5v0__aoi221_2 A1 A2 B1 B2 C ZN VDD VSS
.ends

* Black-box entry subcircuit for gf180mcu_fd_sc_mcu7t5v0__or2_1 abstract view
.subckt gf180mcu_fd_sc_mcu7t5v0__or2_1 A1 A2 Z VDD VSS
.ends

* Black-box entry subcircuit for gf180mcu_fd_sc_mcu7t5v0__xnor2_1 abstract view
.subckt gf180mcu_fd_sc_mcu7t5v0__xnor2_1 A1 A2 ZN VDD VSS
.ends

* Black-box entry subcircuit for gf180mcu_fd_sc_mcu7t5v0__aoi22_2 abstract view
.subckt gf180mcu_fd_sc_mcu7t5v0__aoi22_2 A1 A2 B1 B2 ZN VDD VSS
.ends

* Black-box entry subcircuit for gf180mcu_fd_sc_mcu7t5v0__inv_1 abstract view
.subckt gf180mcu_fd_sc_mcu7t5v0__inv_1 I ZN VDD VSS
.ends

* Black-box entry subcircuit for gf180mcu_fd_sc_mcu7t5v0__nand4_1 abstract view
.subckt gf180mcu_fd_sc_mcu7t5v0__nand4_1 A1 A2 A3 A4 ZN VDD VSS
.ends

* Black-box entry subcircuit for gf180mcu_fd_sc_mcu7t5v0__xor2_1 abstract view
.subckt gf180mcu_fd_sc_mcu7t5v0__xor2_1 A1 A2 Z VDD VSS
.ends

* Black-box entry subcircuit for gf180mcu_fd_sc_mcu7t5v0__and4_1 abstract view
.subckt gf180mcu_fd_sc_mcu7t5v0__and4_1 A1 A2 A3 A4 Z VDD VSS
.ends

* Black-box entry subcircuit for gf180mcu_fd_sc_mcu7t5v0__aoi221_4 abstract view
.subckt gf180mcu_fd_sc_mcu7t5v0__aoi221_4 A1 A2 B1 B2 C ZN VDD VSS
.ends

* Black-box entry subcircuit for gf180mcu_fd_sc_mcu7t5v0__nand4_2 abstract view
.subckt gf180mcu_fd_sc_mcu7t5v0__nand4_2 A1 A2 A3 A4 ZN VDD VSS
.ends

* Black-box entry subcircuit for gf180mcu_fd_sc_mcu7t5v0__nor3_2 abstract view
.subckt gf180mcu_fd_sc_mcu7t5v0__nor3_2 A1 A2 A3 ZN VDD VSS
.ends

* Black-box entry subcircuit for gf180mcu_fd_sc_mcu7t5v0__oai22_1 abstract view
.subckt gf180mcu_fd_sc_mcu7t5v0__oai22_1 A1 A2 B1 B2 ZN VDD VSS
.ends

* Black-box entry subcircuit for gf180mcu_fd_sc_mcu7t5v0__aoi222_1 abstract view
.subckt gf180mcu_fd_sc_mcu7t5v0__aoi222_1 A1 A2 B1 B2 C1 C2 ZN VDD VSS
.ends

* Black-box entry subcircuit for gf180mcu_fd_sc_mcu7t5v0__oai32_2 abstract view
.subckt gf180mcu_fd_sc_mcu7t5v0__oai32_2 A1 A2 A3 B1 B2 ZN VDD VSS
.ends

* Black-box entry subcircuit for gf180mcu_fd_sc_mcu7t5v0__aoi211_2 abstract view
.subckt gf180mcu_fd_sc_mcu7t5v0__aoi211_2 A1 A2 B C ZN VDD VSS
.ends

* Black-box entry subcircuit for gf180mcu_fd_sc_mcu7t5v0__or3_1 abstract view
.subckt gf180mcu_fd_sc_mcu7t5v0__or3_1 A1 A2 A3 Z VDD VSS
.ends

* Black-box entry subcircuit for gf180mcu_fd_sc_mcu7t5v0__nor4_4 abstract view
.subckt gf180mcu_fd_sc_mcu7t5v0__nor4_4 A1 A2 A3 A4 ZN VDD VSS
.ends

* Black-box entry subcircuit for gf180mcu_fd_sc_mcu7t5v0__nand4_4 abstract view
.subckt gf180mcu_fd_sc_mcu7t5v0__nand4_4 A1 A2 A3 A4 ZN VDD VSS
.ends

* Black-box entry subcircuit for gf180mcu_fd_sc_mcu7t5v0__oai211_2 abstract view
.subckt gf180mcu_fd_sc_mcu7t5v0__oai211_2 A1 A2 B C ZN VDD VSS
.ends

* Black-box entry subcircuit for gf180mcu_fd_sc_mcu7t5v0__tiel abstract view
.subckt gf180mcu_fd_sc_mcu7t5v0__tiel ZN VDD VSS
.ends

* Black-box entry subcircuit for gf180mcu_fd_sc_mcu7t5v0__dlyd_1 abstract view
.subckt gf180mcu_fd_sc_mcu7t5v0__dlyd_1 I Z VDD VSS
.ends

* Black-box entry subcircuit for gf180mcu_fd_sc_mcu7t5v0__dffnq_1 abstract view
.subckt gf180mcu_fd_sc_mcu7t5v0__dffnq_1 D CLKN Q VDD VSS
.ends

* Black-box entry subcircuit for gf180mcu_fd_sc_mcu7t5v0__buf_12 abstract view
.subckt gf180mcu_fd_sc_mcu7t5v0__buf_12 I Z VDD VSS
.ends

* Black-box entry subcircuit for gf180mcu_fd_sc_mcu7t5v0__oai31_2 abstract view
.subckt gf180mcu_fd_sc_mcu7t5v0__oai31_2 A1 A2 A3 B ZN VDD VSS
.ends

* Black-box entry subcircuit for gf180mcu_fd_sc_mcu7t5v0__nor3_4 abstract view
.subckt gf180mcu_fd_sc_mcu7t5v0__nor3_4 A1 A2 A3 ZN VDD VSS
.ends

* Black-box entry subcircuit for gf180mcu_fd_sc_mcu7t5v0__buf_4 abstract view
.subckt gf180mcu_fd_sc_mcu7t5v0__buf_4 I Z VDD VSS
.ends

* Black-box entry subcircuit for gf180mcu_fd_sc_mcu7t5v0__oai21_2 abstract view
.subckt gf180mcu_fd_sc_mcu7t5v0__oai21_2 A1 A2 B ZN VDD VSS
.ends

* Black-box entry subcircuit for gf180mcu_fd_ip_sram__sram256x8m8wm1 abstract view
.subckt gf180mcu_fd_ip_sram__sram256x8m8wm1 A[0] A[1] A[2] A[3] A[4] A[5] A[6] A[7]
+ CEN CLK D[0] D[1] D[2] D[3] D[4] D[5] D[6] D[7] GWEN Q[0] Q[1] Q[2] Q[3] Q[4] Q[5]
+ Q[6] Q[7] WEN[0] WEN[1] WEN[2] WEN[3] WEN[4] WEN[5] WEN[6] WEN[7] VDD VSS
.ends

* Black-box entry subcircuit for gf180mcu_fd_sc_mcu7t5v0__inv_4 abstract view
.subckt gf180mcu_fd_sc_mcu7t5v0__inv_4 I ZN VDD VSS
.ends

* Black-box entry subcircuit for gf180mcu_fd_sc_mcu7t5v0__nand3_2 abstract view
.subckt gf180mcu_fd_sc_mcu7t5v0__nand3_2 A1 A2 A3 ZN VDD VSS
.ends

* Black-box entry subcircuit for gf180mcu_fd_sc_mcu7t5v0__oai222_1 abstract view
.subckt gf180mcu_fd_sc_mcu7t5v0__oai222_1 A1 A2 B1 B2 C1 C2 ZN VDD VSS
.ends

* Black-box entry subcircuit for gf180mcu_fd_sc_mcu7t5v0__inv_2 abstract view
.subckt gf180mcu_fd_sc_mcu7t5v0__inv_2 I ZN VDD VSS
.ends

* Black-box entry subcircuit for gf180mcu_fd_sc_mcu7t5v0__mux4_1 abstract view
.subckt gf180mcu_fd_sc_mcu7t5v0__mux4_1 I0 I1 I2 I3 S0 S1 Z VDD VSS
.ends

* Black-box entry subcircuit for gf180mcu_fd_sc_mcu7t5v0__clkinv_2 abstract view
.subckt gf180mcu_fd_sc_mcu7t5v0__clkinv_2 I ZN VDD VSS
.ends

* Black-box entry subcircuit for gf180mcu_fd_sc_mcu7t5v0__nor2_4 abstract view
.subckt gf180mcu_fd_sc_mcu7t5v0__nor2_4 A1 A2 ZN VDD VSS
.ends

* Black-box entry subcircuit for gf180mcu_fd_sc_mcu7t5v0__nor4_2 abstract view
.subckt gf180mcu_fd_sc_mcu7t5v0__nor4_2 A1 A2 A3 A4 ZN VDD VSS
.ends

* Black-box entry subcircuit for gf180mcu_fd_sc_mcu7t5v0__and4_2 abstract view
.subckt gf180mcu_fd_sc_mcu7t5v0__and4_2 A1 A2 A3 A4 Z VDD VSS
.ends

.subckt serv_0 io_in[0] io_in[1] io_in[2] io_in[3] io_in[4] io_oeb[0] io_oeb[1] io_oeb[2]
+ io_oeb[3] io_oeb[4] io_out[0] io_out[1] io_out[2] io_out[3] io_out[4] vdd vss
XFILLER_45_1396 vdd vss gf180mcu_fd_sc_mcu7t5v0__fill_1
XFILLER_41_1238 vdd vss gf180mcu_fd_sc_mcu7t5v0__fill_1
X_3155_ _0149_ net97 u_cpu.cpu.ctrl.o_ibus_adr\[8\] vdd vss gf180mcu_fd_sc_mcu7t5v0__dffq_1
XFILLER_95_895 vdd vss gf180mcu_fd_sc_mcu7t5v0__fillcap_4
XFILLER_97_1751 vdd vss gf180mcu_fd_sc_mcu7t5v0__fill_1
X_2106_ _1282_ _0314_ _0315_ vdd vss gf180mcu_fd_sc_mcu7t5v0__nand2_1
XFILLER_23_1694 vdd vss gf180mcu_fd_sc_mcu7t5v0__fill_2
XFILLER_23_1683 vdd vss gf180mcu_fd_sc_mcu7t5v0__fill_2
XFILLER_3_1744 vdd vss gf180mcu_fd_sc_mcu7t5v0__fill_1
XFILLER_3_1755 vdd vss gf180mcu_fd_sc_mcu7t5v0__fillcap_4
XANTENNA_fanout56_I net60 vdd vss gf180mcu_fd_sc_mcu7t5v0__antenna
X_3086_ _0083_ net57 u_cpu.cpu.decode.op22 vdd vss gf180mcu_fd_sc_mcu7t5v0__dffq_1
XFILLER_78_1150 vdd vss gf180mcu_fd_sc_mcu7t5v0__fillcap_64
XFILLER_39_1112 vdd vss gf180mcu_fd_sc_mcu7t5v0__fill_1
X_2037_ _0225_ u_cpu.rf_ram_if.rcnt\[1\] u_cpu.raddr\[0\] u_cpu.rf_ram_if.rcnt\[2\]
+ _0261_ vdd vss gf180mcu_fd_sc_mcu7t5v0__aoi211_1
XFILLER_39_1145 vdd vss gf180mcu_fd_sc_mcu7t5v0__fill_2
XFILLER_39_1123 vdd vss gf180mcu_fd_sc_mcu7t5v0__fill_2
XFILLER_36_995 vdd vss gf180mcu_fd_sc_mcu7t5v0__fill_1
XFILLER_17_1410 vdd vss gf180mcu_fd_sc_mcu7t5v0__fill_2
XFILLER_1_1490 vdd vss gf180mcu_fd_sc_mcu7t5v0__fill_1
XFILLER_52_1356 vdd vss gf180mcu_fd_sc_mcu7t5v0__fill_2
XANTENNA__2254__I0 u_arbiter.i_wb_cpu_rdt\[14\] vdd vss gf180mcu_fd_sc_mcu7t5v0__antenna
X_2939_ _0982_ _0988_ _0989_ vdd vss gf180mcu_fd_sc_mcu7t5v0__nor2_1
XANTENNA__2954__A1 u_cpu.cpu.decode.co_ebreak vdd vss gf180mcu_fd_sc_mcu7t5v0__antenna
XANTENNA__2621__C _0483_ vdd vss gf180mcu_fd_sc_mcu7t5v0__antenna
XFILLER_30_1687 vdd vss gf180mcu_fd_sc_mcu7t5v0__fill_2
XFILLER_11_1053 vdd vss gf180mcu_fd_sc_mcu7t5v0__fill_2
XFILLER_11_1075 vdd vss gf180mcu_fd_sc_mcu7t5v0__fill_2
XFILLER_2_527 vdd vss gf180mcu_fd_sc_mcu7t5v0__fillcap_4
XFILLER_117_66 vdd vss gf180mcu_fd_sc_mcu7t5v0__fillcap_4
XFILLER_137_1277 vdd vss gf180mcu_fd_sc_mcu7t5v0__fill_1
XFILLER_120_937 vdd vss gf180mcu_fd_sc_mcu7t5v0__fillcap_64
XFILLER_63_1463 vdd vss gf180mcu_fd_sc_mcu7t5v0__fillcap_4
XFILLER_8_1666 vdd vss gf180mcu_fd_sc_mcu7t5v0__fill_2
XFILLER_24_1469 vdd vss gf180mcu_fd_sc_mcu7t5v0__fill_2
XFILLER_19_918 vdd vss gf180mcu_fd_sc_mcu7t5v0__fill_2
XTAP_2501 vdd vss gf180mcu_fd_sc_mcu7t5v0__filltie
XANTENNA__1693__A1 u_cpu.cpu.ctrl.o_ibus_adr\[14\] vdd vss gf180mcu_fd_sc_mcu7t5v0__antenna
XTAP_2545 vdd vss gf180mcu_fd_sc_mcu7t5v0__filltie
XTAP_2534 vdd vss gf180mcu_fd_sc_mcu7t5v0__filltie
XTAP_2512 vdd vss gf180mcu_fd_sc_mcu7t5v0__filltie
XTAP_1800 vdd vss gf180mcu_fd_sc_mcu7t5v0__filltie
XTAP_2523 vdd vss gf180mcu_fd_sc_mcu7t5v0__filltie
XFILLER_27_951 vdd vss gf180mcu_fd_sc_mcu7t5v0__fill_2
XFILLER_27_973 vdd vss gf180mcu_fd_sc_mcu7t5v0__fill_1
XTAP_2578 vdd vss gf180mcu_fd_sc_mcu7t5v0__filltie
XTAP_1833 vdd vss gf180mcu_fd_sc_mcu7t5v0__filltie
XTAP_1822 vdd vss gf180mcu_fd_sc_mcu7t5v0__filltie
XTAP_2556 vdd vss gf180mcu_fd_sc_mcu7t5v0__filltie
XTAP_1811 vdd vss gf180mcu_fd_sc_mcu7t5v0__filltie
XTAP_2567 vdd vss gf180mcu_fd_sc_mcu7t5v0__filltie
XTAP_1866 vdd vss gf180mcu_fd_sc_mcu7t5v0__filltie
XFILLER_18_1218 vdd vss gf180mcu_fd_sc_mcu7t5v0__fill_1
XTAP_2589 vdd vss gf180mcu_fd_sc_mcu7t5v0__filltie
XFILLER_92_1147 vdd vss gf180mcu_fd_sc_mcu7t5v0__fill_1
XTAP_1844 vdd vss gf180mcu_fd_sc_mcu7t5v0__filltie
XTAP_1855 vdd vss gf180mcu_fd_sc_mcu7t5v0__filltie
XFILLER_42_954 vdd vss gf180mcu_fd_sc_mcu7t5v0__fill_2
XANTENNA__2642__B1 _0502_ vdd vss gf180mcu_fd_sc_mcu7t5v0__antenna
XFILLER_144_1259 vdd vss gf180mcu_fd_sc_mcu7t5v0__fill_1
XTAP_1899 vdd vss gf180mcu_fd_sc_mcu7t5v0__filltie
XTAP_1877 vdd vss gf180mcu_fd_sc_mcu7t5v0__filltie
XTAP_1888 vdd vss gf180mcu_fd_sc_mcu7t5v0__filltie
XFILLER_42_976 vdd vss gf180mcu_fd_sc_mcu7t5v0__fill_2
XFILLER_122_1502 vdd vss gf180mcu_fd_sc_mcu7t5v0__fill_1
XFILLER_70_1434 vdd vss gf180mcu_fd_sc_mcu7t5v0__fillcap_64
XFILLER_9_137 vdd vss gf180mcu_fd_sc_mcu7t5v0__fillcap_4
XFILLER_35_1598 vdd vss gf180mcu_fd_sc_mcu7t5v0__fill_2
XANTENNA__1748__A2 _1190_ vdd vss gf180mcu_fd_sc_mcu7t5v0__antenna
XFILLER_6_811 vdd vss gf180mcu_fd_sc_mcu7t5v0__fillcap_4
XANTENNA__2945__A1 _1268_ vdd vss gf180mcu_fd_sc_mcu7t5v0__antenna
XFILLER_5_354 vdd vss gf180mcu_fd_sc_mcu7t5v0__fill_1
XFILLER_120_1292 vdd vss gf180mcu_fd_sc_mcu7t5v0__fillcap_64
XFILLER_68_1363 vdd vss gf180mcu_fd_sc_mcu7t5v0__fillcap_64
Xu_scanchain_local.scan_flop\[34\] u_arbiter.i_wb_cpu_rdt\[31\] net145 u_arbiter.i_wb_cpu_dbus_dat\[28\]
+ net27 u_scanchain_local.module_data_in\[34\] vdd vss gf180mcu_fd_sc_mcu7t5v0__sdffq_1
XFILLER_29_1325 vdd vss gf180mcu_fd_sc_mcu7t5v0__fill_1
XANTENNA__2173__A2 _0369_ vdd vss gf180mcu_fd_sc_mcu7t5v0__antenna
XFILLER_9_1419 vdd vss gf180mcu_fd_sc_mcu7t5v0__fill_1
XFILLER_81_1541 vdd vss gf180mcu_fd_sc_mcu7t5v0__fillcap_64
XFILLER_67_70 vdd vss gf180mcu_fd_sc_mcu7t5v0__fill_1
XANTENNA_u_scanchain_local.scan_flop\[68\]_SE net147 vdd vss gf180mcu_fd_sc_mcu7t5v0__antenna
XANTENNA__1684__A1 _1124_ vdd vss gf180mcu_fd_sc_mcu7t5v0__antenna
XFILLER_77_895 vdd vss gf180mcu_fd_sc_mcu7t5v0__fillcap_4
XFILLER_40_1282 vdd vss gf180mcu_fd_sc_mcu7t5v0__fill_2
XANTENNA__2773__I _0869_ vdd vss gf180mcu_fd_sc_mcu7t5v0__antenna
XFILLER_79_1470 vdd vss gf180mcu_fd_sc_mcu7t5v0__fillcap_64
XANTENNA__2484__I0 u_arbiter.i_wb_cpu_rdt\[23\] vdd vss gf180mcu_fd_sc_mcu7t5v0__antenna
XFILLER_36_1329 vdd vss gf180mcu_fd_sc_mcu7t5v0__fill_2
XFILLER_33_987 vdd vss gf180mcu_fd_sc_mcu7t5v0__fillcap_4
XFILLER_18_1752 vdd vss gf180mcu_fd_sc_mcu7t5v0__fill_2
XFILLER_60_795 vdd vss gf180mcu_fd_sc_mcu7t5v0__fillcap_64
XANTENNA__2236__I0 u_arbiter.i_wb_cpu_rdt\[9\] vdd vss gf180mcu_fd_sc_mcu7t5v0__antenna
XFILLER_80_2 vdd vss gf180mcu_fd_sc_mcu7t5v0__fillcap_32
XFILLER_53_1676 vdd vss gf180mcu_fd_sc_mcu7t5v0__fillcap_4
XANTENNA__1739__A2 _1190_ vdd vss gf180mcu_fd_sc_mcu7t5v0__antenna
X_2724_ u_arbiter.i_wb_cpu_dbus_adr\[21\] u_arbiter.i_wb_cpu_dbus_adr\[22\] _0845_
+ _0846_ vdd vss gf180mcu_fd_sc_mcu7t5v0__mux2_2
X_2655_ _0560_ _0630_ _0800_ _0801_ vdd vss gf180mcu_fd_sc_mcu7t5v0__aoi21_1
X_1606_ _1083_ u_cpu.rf_ram_if.wtrig0 vdd vss gf180mcu_fd_sc_mcu7t5v0__clkinv_1
XFILLER_47_1436 vdd vss gf180mcu_fd_sc_mcu7t5v0__fill_2
X_2586_ _0414_ _0554_ _0739_ _0528_ _0740_ vdd vss gf180mcu_fd_sc_mcu7t5v0__aoi22_1
XFILLER_64_1750 vdd vss gf180mcu_fd_sc_mcu7t5v0__fillcap_8
Xfanout116 net117 net116 vdd vss gf180mcu_fd_sc_mcu7t5v0__dlyc_1
Xfanout127 net130 net127 vdd vss gf180mcu_fd_sc_mcu7t5v0__dlyb_1
XANTENNA__1852__I u_cpu.cpu.alu.i_rs1 vdd vss gf180mcu_fd_sc_mcu7t5v0__antenna
XFILLER_25_1701 vdd vss gf180mcu_fd_sc_mcu7t5v0__fill_2
Xfanout138 net142 net138 vdd vss gf180mcu_fd_sc_mcu7t5v0__dlyb_1
Xfanout105 net110 net105 vdd vss gf180mcu_fd_sc_mcu7t5v0__dlyc_1
XFILLER_102_937 vdd vss gf180mcu_fd_sc_mcu7t5v0__fillcap_64
Xfanout149 net150 net149 vdd vss gf180mcu_fd_sc_mcu7t5v0__dlyb_1
XFILLER_41_1002 vdd vss gf180mcu_fd_sc_mcu7t5v0__fill_2
XFILLER_112_1715 vdd vss gf180mcu_fd_sc_mcu7t5v0__fill_1
XFILLER_60_1647 vdd vss gf180mcu_fd_sc_mcu7t5v0__fillcap_64
XFILLER_41_1013 vdd vss gf180mcu_fd_sc_mcu7t5v0__fill_2
X_3207_ _0200_ net54 u_cpu.cpu.genblk3.csr.mcause3_0\[1\] vdd vss gf180mcu_fd_sc_mcu7t5v0__dffq_1
X_3138_ _0135_ net118 u_arbiter.i_wb_cpu_dbus_adr\[28\] vdd vss gf180mcu_fd_sc_mcu7t5v0__dffq_1
XANTENNA__1801__B _1241_ vdd vss gf180mcu_fd_sc_mcu7t5v0__antenna
XFILLER_3_1541 vdd vss gf180mcu_fd_sc_mcu7t5v0__fillcap_4
X_3069_ _0066_ net116 u_arbiter.i_wb_cpu_dbus_dat\[25\] vdd vss gf180mcu_fd_sc_mcu7t5v0__dffq_1
XTAP_1118 vdd vss gf180mcu_fd_sc_mcu7t5v0__filltie
XTAP_1107 vdd vss gf180mcu_fd_sc_mcu7t5v0__filltie
XTAP_1129 vdd vss gf180mcu_fd_sc_mcu7t5v0__filltie
XFILLER_93_1467 vdd vss gf180mcu_fd_sc_mcu7t5v0__fill_1
XFILLER_58_1576 vdd vss gf180mcu_fd_sc_mcu7t5v0__fillcap_64
XFILLER_36_792 vdd vss gf180mcu_fd_sc_mcu7t5v0__fill_1
XFILLER_19_1549 vdd vss gf180mcu_fd_sc_mcu7t5v0__fill_1
XFILLER_19_1538 vdd vss gf180mcu_fd_sc_mcu7t5v0__fill_1
XFILLER_71_1754 vdd vss gf180mcu_fd_sc_mcu7t5v0__fillcap_4
XFILLER_11_637 vdd vss gf180mcu_fd_sc_mcu7t5v0__fill_2
XFILLER_104_1221 vdd vss gf180mcu_fd_sc_mcu7t5v0__fillcap_64
XFILLER_13_1115 vdd vss gf180mcu_fd_sc_mcu7t5v0__fill_1
XFILLER_13_1126 vdd vss gf180mcu_fd_sc_mcu7t5v0__fill_2
XFILLER_52_1197 vdd vss gf180mcu_fd_sc_mcu7t5v0__fillcap_16
XFILLER_30_1440 vdd vss gf180mcu_fd_sc_mcu7t5v0__fill_2
XFILLER_30_1495 vdd vss gf180mcu_fd_sc_mcu7t5v0__fill_2
XFILLER_3_847 vdd vss gf180mcu_fd_sc_mcu7t5v0__fillcap_4
XFILLER_69_1683 vdd vss gf180mcu_fd_sc_mcu7t5v0__fillcap_64
XFILLER_101_970 vdd vss gf180mcu_fd_sc_mcu7t5v0__fill_1
XTAP_3021 vdd vss gf180mcu_fd_sc_mcu7t5v0__filltie
XFILLER_24_1288 vdd vss gf180mcu_fd_sc_mcu7t5v0__fill_2
XFILLER_24_1266 vdd vss gf180mcu_fd_sc_mcu7t5v0__fillcap_4
XANTENNA__1666__A1 u_arbiter.i_wb_cpu_dbus_adr\[10\] vdd vss gf180mcu_fd_sc_mcu7t5v0__antenna
XTAP_3010 vdd vss gf180mcu_fd_sc_mcu7t5v0__filltie
XFILLER_59_895 vdd vss gf180mcu_fd_sc_mcu7t5v0__fillcap_4
XFILLER_20_1108 vdd vss gf180mcu_fd_sc_mcu7t5v0__fill_2
XTAP_3043 vdd vss gf180mcu_fd_sc_mcu7t5v0__filltie
XFILLER_98_1356 vdd vss gf180mcu_fd_sc_mcu7t5v0__fillcap_4
XTAP_2320 vdd vss gf180mcu_fd_sc_mcu7t5v0__filltie
XFILLER_37_73 vdd vss gf180mcu_fd_sc_mcu7t5v0__fillcap_32
XTAP_3032 vdd vss gf180mcu_fd_sc_mcu7t5v0__filltie
XTAP_3054 vdd vss gf180mcu_fd_sc_mcu7t5v0__filltie
XTAP_2342 vdd vss gf180mcu_fd_sc_mcu7t5v0__filltie
XTAP_2331 vdd vss gf180mcu_fd_sc_mcu7t5v0__filltie
XTAP_3098 vdd vss gf180mcu_fd_sc_mcu7t5v0__filltie
XTAP_3065 vdd vss gf180mcu_fd_sc_mcu7t5v0__filltie
XTAP_2353 vdd vss gf180mcu_fd_sc_mcu7t5v0__filltie
XTAP_3076 vdd vss gf180mcu_fd_sc_mcu7t5v0__filltie
XTAP_3087 vdd vss gf180mcu_fd_sc_mcu7t5v0__filltie
XFILLER_15_921 vdd vss gf180mcu_fd_sc_mcu7t5v0__fill_2
XFILLER_128_1711 vdd vss gf180mcu_fd_sc_mcu7t5v0__fillcap_4
XTAP_2375 vdd vss gf180mcu_fd_sc_mcu7t5v0__filltie
XTAP_2364 vdd vss gf180mcu_fd_sc_mcu7t5v0__filltie
XTAP_1630 vdd vss gf180mcu_fd_sc_mcu7t5v0__filltie
XFILLER_37_1627 vdd vss gf180mcu_fd_sc_mcu7t5v0__fill_2
XTAP_2386 vdd vss gf180mcu_fd_sc_mcu7t5v0__filltie
XTAP_1641 vdd vss gf180mcu_fd_sc_mcu7t5v0__filltie
XFILLER_2_1095 vdd vss gf180mcu_fd_sc_mcu7t5v0__fillcap_4
XFILLER_27_792 vdd vss gf180mcu_fd_sc_mcu7t5v0__fill_2
XTAP_1663 vdd vss gf180mcu_fd_sc_mcu7t5v0__filltie
XANTENNA__2091__A1 _1236_ vdd vss gf180mcu_fd_sc_mcu7t5v0__antenna
XTAP_1685 vdd vss gf180mcu_fd_sc_mcu7t5v0__filltie
XTAP_1674 vdd vss gf180mcu_fd_sc_mcu7t5v0__filltie
XTAP_1652 vdd vss gf180mcu_fd_sc_mcu7t5v0__filltie
XTAP_2397 vdd vss gf180mcu_fd_sc_mcu7t5v0__filltie
XANTENNA__3028__CLK net40 vdd vss gf180mcu_fd_sc_mcu7t5v0__antenna
XFILLER_15_976 vdd vss gf180mcu_fd_sc_mcu7t5v0__fill_2
XFILLER_15_987 vdd vss gf180mcu_fd_sc_mcu7t5v0__fill_1
XFILLER_18_1015 vdd vss gf180mcu_fd_sc_mcu7t5v0__fillcap_4
XFILLER_18_1026 vdd vss gf180mcu_fd_sc_mcu7t5v0__fill_2
XTAP_1696 vdd vss gf180mcu_fd_sc_mcu7t5v0__filltie
XFILLER_42_795 vdd vss gf180mcu_fd_sc_mcu7t5v0__fillcap_32
XFILLER_18_1059 vdd vss gf180mcu_fd_sc_mcu7t5v0__fill_2
XFILLER_35_1373 vdd vss gf180mcu_fd_sc_mcu7t5v0__fillcap_4
XANTENNA__3178__CLK net102 vdd vss gf180mcu_fd_sc_mcu7t5v0__antenna
XANTENNA_u_scanchain_local.scan_flop\[2\]_CLK net9 vdd vss gf180mcu_fd_sc_mcu7t5v0__antenna
XFILLER_10_670 vdd vss gf180mcu_fd_sc_mcu7t5v0__fillcap_4
XANTENNA_fanout106_I net110 vdd vss gf180mcu_fd_sc_mcu7t5v0__antenna
XFILLER_142_314 vdd vss gf180mcu_fd_sc_mcu7t5v0__fillcap_4
X_2440_ _0511_ _0593_ _0605_ _0606_ _0607_ vdd vss gf180mcu_fd_sc_mcu7t5v0__aoi22_1
XFILLER_97_902 vdd vss gf180mcu_fd_sc_mcu7t5v0__fillcap_64
XFILLER_29_1111 vdd vss gf180mcu_fd_sc_mcu7t5v0__fill_2
X_2371_ _0437_ _0543_ vdd vss gf180mcu_fd_sc_mcu7t5v0__buf_1
XFILLER_9_1216 vdd vss gf180mcu_fd_sc_mcu7t5v0__fill_2
XFILLER_9_1249 vdd vss gf180mcu_fd_sc_mcu7t5v0__fill_2
XFILLER_116_1147 vdd vss gf180mcu_fd_sc_mcu7t5v0__fill_1
XFILLER_64_1079 vdd vss gf180mcu_fd_sc_mcu7t5v0__fillcap_64
XFILLER_42_1366 vdd vss gf180mcu_fd_sc_mcu7t5v0__fill_2
XFILLER_20_1620 vdd vss gf180mcu_fd_sc_mcu7t5v0__fill_2
XANTENNA__2854__B1 _0520_ vdd vss gf180mcu_fd_sc_mcu7t5v0__antenna
XFILLER_20_1653 vdd vss gf180mcu_fd_sc_mcu7t5v0__fill_2
XFILLER_0_1714 vdd vss gf180mcu_fd_sc_mcu7t5v0__fill_1
XFILLER_20_1686 vdd vss gf180mcu_fd_sc_mcu7t5v0__fill_2
XFILLER_0_1758 vdd vss gf180mcu_fd_sc_mcu7t5v0__fill_1
XFILLER_18_792 vdd vss gf180mcu_fd_sc_mcu7t5v0__fill_1
XFILLER_21_902 vdd vss gf180mcu_fd_sc_mcu7t5v0__fill_1
XFILLER_127_1254 vdd vss gf180mcu_fd_sc_mcu7t5v0__fill_1
XFILLER_75_1186 vdd vss gf180mcu_fd_sc_mcu7t5v0__fillcap_64
XFILLER_105_1541 vdd vss gf180mcu_fd_sc_mcu7t5v0__fillcap_64
XANTENNA_fanout19_I net21 vdd vss gf180mcu_fd_sc_mcu7t5v0__antenna
XFILLER_140_1454 vdd vss gf180mcu_fd_sc_mcu7t5v0__fill_1
X_2707_ _0836_ _0120_ vdd vss gf180mcu_fd_sc_mcu7t5v0__clkbuf_1
XFILLER_134_815 vdd vss gf180mcu_fd_sc_mcu7t5v0__fill_1
XANTENNA__2385__A2 _0537_ vdd vss gf180mcu_fd_sc_mcu7t5v0__antenna
XFILLER_88_1569 vdd vss gf180mcu_fd_sc_mcu7t5v0__fillcap_4
XFILLER_49_1509 vdd vss gf180mcu_fd_sc_mcu7t5v0__fill_2
XFILLER_12_1192 vdd vss gf180mcu_fd_sc_mcu7t5v0__fill_1
X_2638_ u_cpu.cpu.immdec.imm19_12_20\[6\] _0514_ _0786_ vdd vss gf180mcu_fd_sc_mcu7t5v0__nor2_1
X_2569_ u_cpu.cpu.immdec.imm30_25\[5\] _0678_ _0724_ vdd vss gf180mcu_fd_sc_mcu7t5v0__nand2_1
XFILLER_138_1383 vdd vss gf180mcu_fd_sc_mcu7t5v0__fill_1
XFILLER_47_1299 vdd vss gf180mcu_fd_sc_mcu7t5v0__fill_2
XFILLER_9_1750 vdd vss gf180mcu_fd_sc_mcu7t5v0__fill_2
XFILLER_43_1108 vdd vss gf180mcu_fd_sc_mcu7t5v0__fill_2
XFILLER_0_839 vdd vss gf180mcu_fd_sc_mcu7t5v0__fill_1
XFILLER_114_34 vdd vss gf180mcu_fd_sc_mcu7t5v0__fill_1
XFILLER_99_1676 vdd vss gf180mcu_fd_sc_mcu7t5v0__fillcap_4
XANTENNA__1648__A1 _1087_ vdd vss gf180mcu_fd_sc_mcu7t5v0__antenna
XANTENNA__2845__B1 _0259_ vdd vss gf180mcu_fd_sc_mcu7t5v0__antenna
XFILLER_71_824 vdd vss gf180mcu_fd_sc_mcu7t5v0__fillcap_4
XFILLER_19_1335 vdd vss gf180mcu_fd_sc_mcu7t5v0__fill_2
XANTENNA__2073__A1 _0279_ vdd vss gf180mcu_fd_sc_mcu7t5v0__antenna
XFILLER_90_37 vdd vss gf180mcu_fd_sc_mcu7t5v0__fillcap_64
XFILLER_12_902 vdd vss gf180mcu_fd_sc_mcu7t5v0__fill_2
XFILLER_12_935 vdd vss gf180mcu_fd_sc_mcu7t5v0__fill_2
XFILLER_24_795 vdd vss gf180mcu_fd_sc_mcu7t5v0__fill_1
XFILLER_32_1502 vdd vss gf180mcu_fd_sc_mcu7t5v0__fill_1
XFILLER_128_108 vdd vss gf180mcu_fd_sc_mcu7t5v0__fill_2
XFILLER_11_489 vdd vss gf180mcu_fd_sc_mcu7t5v0__fill_2
XFILLER_128_2 vdd vss gf180mcu_fd_sc_mcu7t5v0__fillcap_32
XFILLER_32_1579 vdd vss gf180mcu_fd_sc_mcu7t5v0__fill_2
XFILLER_20_990 vdd vss gf180mcu_fd_sc_mcu7t5v0__fill_2
XFILLER_67_1609 vdd vss gf180mcu_fd_sc_mcu7t5v0__fill_1
XFILLER_48_1008 vdd vss gf180mcu_fd_sc_mcu7t5v0__fill_1
XFILLER_30_1292 vdd vss gf180mcu_fd_sc_mcu7t5v0__fill_1
XFILLER_79_902 vdd vss gf180mcu_fd_sc_mcu7t5v0__fillcap_64
XFILLER_48_1019 vdd vss gf180mcu_fd_sc_mcu7t5v0__fill_2
XFILLER_140_818 vdd vss gf180mcu_fd_sc_mcu7t5v0__fillcap_64
XFILLER_26_1317 vdd vss gf180mcu_fd_sc_mcu7t5v0__fill_2
XANTENNA__1887__A1 _1274_ vdd vss gf180mcu_fd_sc_mcu7t5v0__antenna
XFILLER_2_176 vdd vss gf180mcu_fd_sc_mcu7t5v0__fill_1
XFILLER_117_1467 vdd vss gf180mcu_fd_sc_mcu7t5v0__fill_1
XFILLER_65_1399 vdd vss gf180mcu_fd_sc_mcu7t5v0__fillcap_64
XFILLER_130_1612 vdd vss gf180mcu_fd_sc_mcu7t5v0__fillcap_32
XFILLER_4_1102 vdd vss gf180mcu_fd_sc_mcu7t5v0__fillcap_64
XANTENNA__1639__A1 _1106_ vdd vss gf180mcu_fd_sc_mcu7t5v0__antenna
XANTENNA__2687__I0 u_arbiter.i_wb_cpu_dbus_adr\[5\] vdd vss gf180mcu_fd_sc_mcu7t5v0__antenna
XFILLER_111_1044 vdd vss gf180mcu_fd_sc_mcu7t5v0__fillcap_64
XFILLER_24_1085 vdd vss gf180mcu_fd_sc_mcu7t5v0__fill_2
XANTENNA__2300__A2 u_arbiter.i_wb_cpu_ibus_adr\[1\] vdd vss gf180mcu_fd_sc_mcu7t5v0__antenna
XFILLER_59_1115 vdd vss gf180mcu_fd_sc_mcu7t5v0__fillcap_64
XTAP_2161 vdd vss gf180mcu_fd_sc_mcu7t5v0__filltie
XTAP_2150 vdd vss gf180mcu_fd_sc_mcu7t5v0__filltie
XTAP_2194 vdd vss gf180mcu_fd_sc_mcu7t5v0__filltie
XTAP_2172 vdd vss gf180mcu_fd_sc_mcu7t5v0__filltie
XTAP_1460 vdd vss gf180mcu_fd_sc_mcu7t5v0__filltie
XTAP_2183 vdd vss gf180mcu_fd_sc_mcu7t5v0__filltie
XTAP_1493 vdd vss gf180mcu_fd_sc_mcu7t5v0__filltie
XFILLER_37_1446 vdd vss gf180mcu_fd_sc_mcu7t5v0__fill_1
XTAP_1471 vdd vss gf180mcu_fd_sc_mcu7t5v0__filltie
XTAP_1482 vdd vss gf180mcu_fd_sc_mcu7t5v0__filltie
X_1940_ _1076_ _1361_ _1364_ u_cpu.rf_ram.addr\[3\] vdd vss gf180mcu_fd_sc_mcu7t5v0__oai21_4
XFILLER_124_1427 vdd vss gf180mcu_fd_sc_mcu7t5v0__fillcap_4
XFILLER_37_1479 vdd vss gf180mcu_fd_sc_mcu7t5v0__fill_1
X_1871_ _1248_ _1313_ _1314_ vdd vss gf180mcu_fd_sc_mcu7t5v0__and2_1
XFILLER_9_66 vdd vss gf180mcu_fd_sc_mcu7t5v0__fillcap_4
XANTENNA__1811__A1 u_cpu.cpu.decode.co_ebreak vdd vss gf180mcu_fd_sc_mcu7t5v0__antenna
XFILLER_70_1072 vdd vss gf180mcu_fd_sc_mcu7t5v0__fillcap_4
XFILLER_35_1181 vdd vss gf180mcu_fd_sc_mcu7t5v0__fill_2
XFILLER_102_1758 vdd vss gf180mcu_fd_sc_mcu7t5v0__fill_1
XFILLER_143_634 vdd vss gf180mcu_fd_sc_mcu7t5v0__fillcap_4
XFILLER_6_460 vdd vss gf180mcu_fd_sc_mcu7t5v0__fill_1
XFILLER_116_859 vdd vss gf180mcu_fd_sc_mcu7t5v0__fillcap_4
XFILLER_43_2 vdd vss gf180mcu_fd_sc_mcu7t5v0__fillcap_64
XFILLER_130_317 vdd vss gf180mcu_fd_sc_mcu7t5v0__fillcap_32
XFILLER_9_1013 vdd vss gf180mcu_fd_sc_mcu7t5v0__fillcap_4
X_2423_ _0579_ _0590_ _0082_ vdd vss gf180mcu_fd_sc_mcu7t5v0__nand2_1
X_2354_ _0501_ _0528_ vdd vss gf180mcu_fd_sc_mcu7t5v0__buf_1
XFILLER_9_1024 vdd vss gf180mcu_fd_sc_mcu7t5v0__fill_2
XFILLER_22_1715 vdd vss gf180mcu_fd_sc_mcu7t5v0__fill_1
X_2285_ _0415_ _0461_ _0462_ vdd vss gf180mcu_fd_sc_mcu7t5v0__nor2_1
XFILLER_133_1280 vdd vss gf180mcu_fd_sc_mcu7t5v0__fillcap_64
XFILLER_53_824 vdd vss gf180mcu_fd_sc_mcu7t5v0__fillcap_4
XFILLER_71_109 vdd vss gf180mcu_fd_sc_mcu7t5v0__fill_2
XFILLER_94_1573 vdd vss gf180mcu_fd_sc_mcu7t5v0__fill_1
XFILLER_20_1494 vdd vss gf180mcu_fd_sc_mcu7t5v0__fill_2