* NGSPICE file created from tiny_user_project.ext - technology: gf180mcuC

* Black-box entry subcircuit for gf180mcu_fd_sc_mcu7t5v0__fill_1 abstract view
.subckt gf180mcu_fd_sc_mcu7t5v0__fill_1 VDD VSS
.ends

* Black-box entry subcircuit for gf180mcu_fd_sc_mcu7t5v0__fill_2 abstract view
.subckt gf180mcu_fd_sc_mcu7t5v0__fill_2 VDD VSS
.ends

* Black-box entry subcircuit for gf180mcu_fd_sc_mcu7t5v0__antenna abstract view
.subckt gf180mcu_fd_sc_mcu7t5v0__antenna I VDD VSS
.ends

* Black-box entry subcircuit for gf180mcu_fd_sc_mcu7t5v0__clkbuf_1 abstract view
.subckt gf180mcu_fd_sc_mcu7t5v0__clkbuf_1 I Z VDD VSS
.ends

* Black-box entry subcircuit for gf180mcu_fd_sc_mcu7t5v0__fillcap_4 abstract view
.subckt gf180mcu_fd_sc_mcu7t5v0__fillcap_4 VDD VSS
.ends

* Black-box entry subcircuit for gf180mcu_fd_sc_mcu7t5v0__fillcap_8 abstract view
.subckt gf180mcu_fd_sc_mcu7t5v0__fillcap_8 VDD VSS
.ends

* Black-box entry subcircuit for gf180mcu_fd_sc_mcu7t5v0__nor2_1 abstract view
.subckt gf180mcu_fd_sc_mcu7t5v0__nor2_1 A1 A2 ZN VDD VSS
.ends

* Black-box entry subcircuit for gf180mcu_fd_sc_mcu7t5v0__nand2_1 abstract view
.subckt gf180mcu_fd_sc_mcu7t5v0__nand2_1 A1 A2 ZN VDD VSS
.ends

* Black-box entry subcircuit for gf180mcu_fd_sc_mcu7t5v0__buf_1 abstract view
.subckt gf180mcu_fd_sc_mcu7t5v0__buf_1 I Z VDD VSS
.ends

* Black-box entry subcircuit for gf180mcu_fd_sc_mcu7t5v0__oai21_1 abstract view
.subckt gf180mcu_fd_sc_mcu7t5v0__oai21_1 A1 A2 B ZN VDD VSS
.ends

* Black-box entry subcircuit for gf180mcu_fd_sc_mcu7t5v0__mux4_1 abstract view
.subckt gf180mcu_fd_sc_mcu7t5v0__mux4_1 I0 I1 I2 I3 S0 S1 Z VDD VSS
.ends

* Black-box entry subcircuit for gf180mcu_fd_sc_mcu7t5v0__fillcap_64 abstract view
.subckt gf180mcu_fd_sc_mcu7t5v0__fillcap_64 VDD VSS
.ends

* Black-box entry subcircuit for gf180mcu_fd_sc_mcu7t5v0__clkbuf_2 abstract view
.subckt gf180mcu_fd_sc_mcu7t5v0__clkbuf_2 I Z VDD VSS
.ends

* Black-box entry subcircuit for gf180mcu_fd_sc_mcu7t5v0__mux2_2 abstract view
.subckt gf180mcu_fd_sc_mcu7t5v0__mux2_2 I0 I1 S Z VDD VSS
.ends

* Black-box entry subcircuit for gf180mcu_fd_sc_mcu7t5v0__filltie abstract view
.subckt gf180mcu_fd_sc_mcu7t5v0__filltie VDD VSS
.ends

* Black-box entry subcircuit for gf180mcu_fd_sc_mcu7t5v0__dffq_1 abstract view
.subckt gf180mcu_fd_sc_mcu7t5v0__dffq_1 D CLK Q VDD VSS
.ends

* Black-box entry subcircuit for gf180mcu_fd_sc_mcu7t5v0__fillcap_16 abstract view
.subckt gf180mcu_fd_sc_mcu7t5v0__fillcap_16 VDD VSS
.ends

* Black-box entry subcircuit for gf180mcu_fd_sc_mcu7t5v0__clkinv_1 abstract view
.subckt gf180mcu_fd_sc_mcu7t5v0__clkinv_1 I ZN VDD VSS
.ends

* Black-box entry subcircuit for gf180mcu_fd_sc_mcu7t5v0__aoi22_1 abstract view
.subckt gf180mcu_fd_sc_mcu7t5v0__aoi22_1 A1 A2 B1 B2 ZN VDD VSS
.ends

* Black-box entry subcircuit for gf180mcu_fd_sc_mcu7t5v0__nor3_1 abstract view
.subckt gf180mcu_fd_sc_mcu7t5v0__nor3_1 A1 A2 A3 ZN VDD VSS
.ends

* Black-box entry subcircuit for gf180mcu_fd_sc_mcu7t5v0__oai211_1 abstract view
.subckt gf180mcu_fd_sc_mcu7t5v0__oai211_1 A1 A2 B C ZN VDD VSS
.ends

* Black-box entry subcircuit for gf180mcu_fd_sc_mcu7t5v0__nand3_1 abstract view
.subckt gf180mcu_fd_sc_mcu7t5v0__nand3_1 A1 A2 A3 ZN VDD VSS
.ends

* Black-box entry subcircuit for gf180mcu_fd_sc_mcu7t5v0__xor2_1 abstract view
.subckt gf180mcu_fd_sc_mcu7t5v0__xor2_1 A1 A2 Z VDD VSS
.ends

* Black-box entry subcircuit for gf180mcu_fd_sc_mcu7t5v0__aoi21_1 abstract view
.subckt gf180mcu_fd_sc_mcu7t5v0__aoi21_1 A1 A2 B ZN VDD VSS
.ends

* Black-box entry subcircuit for gf180mcu_fd_sc_mcu7t5v0__nand2_2 abstract view
.subckt gf180mcu_fd_sc_mcu7t5v0__nand2_2 A1 A2 ZN VDD VSS
.ends

* Black-box entry subcircuit for gf180mcu_fd_sc_mcu7t5v0__fillcap_32 abstract view
.subckt gf180mcu_fd_sc_mcu7t5v0__fillcap_32 VDD VSS
.ends

* Black-box entry subcircuit for gf180mcu_fd_sc_mcu7t5v0__aoi211_1 abstract view
.subckt gf180mcu_fd_sc_mcu7t5v0__aoi211_1 A1 A2 B C ZN VDD VSS
.ends

* Black-box entry subcircuit for gf180mcu_fd_sc_mcu7t5v0__nand3_2 abstract view
.subckt gf180mcu_fd_sc_mcu7t5v0__nand3_2 A1 A2 A3 ZN VDD VSS
.ends

* Black-box entry subcircuit for gf180mcu_fd_sc_mcu7t5v0__nor2_2 abstract view
.subckt gf180mcu_fd_sc_mcu7t5v0__nor2_2 A1 A2 ZN VDD VSS
.ends

* Black-box entry subcircuit for gf180mcu_fd_sc_mcu7t5v0__oai221_1 abstract view
.subckt gf180mcu_fd_sc_mcu7t5v0__oai221_1 A1 A2 B1 B2 C ZN VDD VSS
.ends

* Black-box entry subcircuit for gf180mcu_fd_sc_mcu7t5v0__nand4_4 abstract view
.subckt gf180mcu_fd_sc_mcu7t5v0__nand4_4 A1 A2 A3 A4 ZN VDD VSS
.ends

* Black-box entry subcircuit for gf180mcu_fd_sc_mcu7t5v0__aoi221_1 abstract view
.subckt gf180mcu_fd_sc_mcu7t5v0__aoi221_1 A1 A2 B1 B2 C ZN VDD VSS
.ends

* Black-box entry subcircuit for gf180mcu_fd_sc_mcu7t5v0__oai22_1 abstract view
.subckt gf180mcu_fd_sc_mcu7t5v0__oai22_1 A1 A2 B1 B2 ZN VDD VSS
.ends

* Black-box entry subcircuit for gf180mcu_fd_sc_mcu7t5v0__endcap abstract view
.subckt gf180mcu_fd_sc_mcu7t5v0__endcap VDD VSS
.ends

* Black-box entry subcircuit for gf180mcu_fd_sc_mcu7t5v0__buf_2 abstract view
.subckt gf180mcu_fd_sc_mcu7t5v0__buf_2 I Z VDD VSS
.ends

* Black-box entry subcircuit for gf180mcu_fd_sc_mcu7t5v0__clkbuf_4 abstract view
.subckt gf180mcu_fd_sc_mcu7t5v0__clkbuf_4 I Z VDD VSS
.ends

* Black-box entry subcircuit for gf180mcu_fd_sc_mcu7t5v0__and2_1 abstract view
.subckt gf180mcu_fd_sc_mcu7t5v0__and2_1 A1 A2 Z VDD VSS
.ends

* Black-box entry subcircuit for gf180mcu_fd_sc_mcu7t5v0__and3_1 abstract view
.subckt gf180mcu_fd_sc_mcu7t5v0__and3_1 A1 A2 A3 Z VDD VSS
.ends

* Black-box entry subcircuit for gf180mcu_fd_sc_mcu7t5v0__or2_1 abstract view
.subckt gf180mcu_fd_sc_mcu7t5v0__or2_1 A1 A2 Z VDD VSS
.ends

* Black-box entry subcircuit for gf180mcu_fd_sc_mcu7t5v0__nor4_4 abstract view
.subckt gf180mcu_fd_sc_mcu7t5v0__nor4_4 A1 A2 A3 A4 ZN VDD VSS
.ends

* Black-box entry subcircuit for gf180mcu_fd_sc_mcu7t5v0__nand4_1 abstract view
.subckt gf180mcu_fd_sc_mcu7t5v0__nand4_1 A1 A2 A3 A4 ZN VDD VSS
.ends

* Black-box entry subcircuit for gf180mcu_fd_sc_mcu7t5v0__nand4_2 abstract view
.subckt gf180mcu_fd_sc_mcu7t5v0__nand4_2 A1 A2 A3 A4 ZN VDD VSS
.ends

* Black-box entry subcircuit for gf180mcu_fd_sc_mcu7t5v0__aoi211_2 abstract view
.subckt gf180mcu_fd_sc_mcu7t5v0__aoi211_2 A1 A2 B C ZN VDD VSS
.ends

* Black-box entry subcircuit for gf180mcu_fd_sc_mcu7t5v0__oai21_2 abstract view
.subckt gf180mcu_fd_sc_mcu7t5v0__oai21_2 A1 A2 B ZN VDD VSS
.ends

* Black-box entry subcircuit for gf180mcu_fd_sc_mcu7t5v0__xnor2_1 abstract view
.subckt gf180mcu_fd_sc_mcu7t5v0__xnor2_1 A1 A2 ZN VDD VSS
.ends

* Black-box entry subcircuit for gf180mcu_fd_sc_mcu7t5v0__dffnq_1 abstract view
.subckt gf180mcu_fd_sc_mcu7t5v0__dffnq_1 D CLKN Q VDD VSS
.ends

* Black-box entry subcircuit for gf180mcu_fd_sc_mcu7t5v0__and4_1 abstract view
.subckt gf180mcu_fd_sc_mcu7t5v0__and4_1 A1 A2 A3 A4 Z VDD VSS
.ends

* Black-box entry subcircuit for gf180mcu_fd_sc_mcu7t5v0__or3_1 abstract view
.subckt gf180mcu_fd_sc_mcu7t5v0__or3_1 A1 A2 A3 Z VDD VSS
.ends

* Black-box entry subcircuit for gf180mcu_fd_sc_mcu7t5v0__inv_1 abstract view
.subckt gf180mcu_fd_sc_mcu7t5v0__inv_1 I ZN VDD VSS
.ends

* Black-box entry subcircuit for gf180mcu_fd_sc_mcu7t5v0__aoi21_2 abstract view
.subckt gf180mcu_fd_sc_mcu7t5v0__aoi21_2 A1 A2 B ZN VDD VSS
.ends

* Black-box entry subcircuit for gf180mcu_fd_sc_mcu7t5v0__oai222_1 abstract view
.subckt gf180mcu_fd_sc_mcu7t5v0__oai222_1 A1 A2 B1 B2 C1 C2 ZN VDD VSS
.ends

* Black-box entry subcircuit for gf180mcu_fd_sc_mcu7t5v0__oai31_1 abstract view
.subckt gf180mcu_fd_sc_mcu7t5v0__oai31_1 A1 A2 A3 B ZN VDD VSS
.ends

* Black-box entry subcircuit for gf180mcu_fd_sc_mcu7t5v0__nor4_1 abstract view
.subckt gf180mcu_fd_sc_mcu7t5v0__nor4_1 A1 A2 A3 A4 ZN VDD VSS
.ends

* Black-box entry subcircuit for gf180mcu_fd_sc_mcu7t5v0__or4_1 abstract view
.subckt gf180mcu_fd_sc_mcu7t5v0__or4_1 A1 A2 A3 A4 Z VDD VSS
.ends

* Black-box entry subcircuit for gf180mcu_fd_sc_mcu7t5v0__aoi222_1 abstract view
.subckt gf180mcu_fd_sc_mcu7t5v0__aoi222_1 A1 A2 B1 B2 C1 C2 ZN VDD VSS
.ends

* Black-box entry subcircuit for gf180mcu_fd_sc_mcu7t5v0__tiel abstract view
.subckt gf180mcu_fd_sc_mcu7t5v0__tiel ZN VDD VSS
.ends

* Black-box entry subcircuit for gf180mcu_fd_sc_mcu7t5v0__aoi22_4 abstract view
.subckt gf180mcu_fd_sc_mcu7t5v0__aoi22_4 A1 A2 B1 B2 ZN VDD VSS
.ends

* Black-box entry subcircuit for gf180mcu_fd_sc_mcu7t5v0__oai32_1 abstract view
.subckt gf180mcu_fd_sc_mcu7t5v0__oai32_1 A1 A2 A3 B1 B2 ZN VDD VSS
.ends

* Black-box entry subcircuit for gf180mcu_fd_sc_mcu7t5v0__buf_20 abstract view
.subckt gf180mcu_fd_sc_mcu7t5v0__buf_20 I Z VDD VSS
.ends

* Black-box entry subcircuit for gf180mcu_fd_sc_mcu7t5v0__nor3_4 abstract view
.subckt gf180mcu_fd_sc_mcu7t5v0__nor3_4 A1 A2 A3 ZN VDD VSS
.ends

* Black-box entry subcircuit for gf180mcu_fd_sc_mcu7t5v0__clkbuf_12 abstract view
.subckt gf180mcu_fd_sc_mcu7t5v0__clkbuf_12 I Z VDD VSS
.ends

* Black-box entry subcircuit for gf180mcu_fd_sc_mcu7t5v0__oai211_2 abstract view
.subckt gf180mcu_fd_sc_mcu7t5v0__oai211_2 A1 A2 B C ZN VDD VSS
.ends

* Black-box entry subcircuit for gf180mcu_fd_sc_mcu7t5v0__aoi211_4 abstract view
.subckt gf180mcu_fd_sc_mcu7t5v0__aoi211_4 A1 A2 B C ZN VDD VSS
.ends

* Black-box entry subcircuit for gf180mcu_fd_sc_mcu7t5v0__oai22_2 abstract view
.subckt gf180mcu_fd_sc_mcu7t5v0__oai22_2 A1 A2 B1 B2 ZN VDD VSS
.ends

* Black-box entry subcircuit for gf180mcu_fd_sc_mcu7t5v0__aoi221_2 abstract view
.subckt gf180mcu_fd_sc_mcu7t5v0__aoi221_2 A1 A2 B1 B2 C ZN VDD VSS
.ends

* Black-box entry subcircuit for gf180mcu_fd_sc_mcu7t5v0__aoi22_2 abstract view
.subckt gf180mcu_fd_sc_mcu7t5v0__aoi22_2 A1 A2 B1 B2 ZN VDD VSS
.ends

* Black-box entry subcircuit for gf180mcu_fd_sc_mcu7t5v0__xor3_1 abstract view
.subckt gf180mcu_fd_sc_mcu7t5v0__xor3_1 A1 A2 A3 Z VDD VSS
.ends

* Black-box entry subcircuit for gf180mcu_fd_sc_mcu7t5v0__nor4_2 abstract view
.subckt gf180mcu_fd_sc_mcu7t5v0__nor4_2 A1 A2 A3 A4 ZN VDD VSS
.ends

.subckt tiny_user_project io_in[0] io_in[10] io_in[11] io_in[12] io_in[13] io_in[14]
+ io_in[15] io_in[16] io_in[17] io_in[18] io_in[19] io_in[1] io_in[20] io_in[21] io_in[22]
+ io_in[23] io_in[24] io_in[25] io_in[26] io_in[27] io_in[28] io_in[29] io_in[2] io_in[30]
+ io_in[31] io_in[32] io_in[33] io_in[34] io_in[35] io_in[36] io_in[37] io_in[3] io_in[4]
+ io_in[5] io_in[6] io_in[7] io_in[8] io_in[9] io_oeb[0] io_oeb[10] io_oeb[11] io_oeb[12]
+ io_oeb[13] io_oeb[14] io_oeb[15] io_oeb[16] io_oeb[17] io_oeb[18] io_oeb[19] io_oeb[1]
+ io_oeb[20] io_oeb[21] io_oeb[22] io_oeb[23] io_oeb[24] io_oeb[25] io_oeb[26] io_oeb[27]
+ io_oeb[28] io_oeb[29] io_oeb[2] io_oeb[30] io_oeb[31] io_oeb[32] io_oeb[33] io_oeb[34]
+ io_oeb[35] io_oeb[36] io_oeb[37] io_oeb[3] io_oeb[4] io_oeb[5] io_oeb[6] io_oeb[7]
+ io_oeb[8] io_oeb[9] io_out[0] io_out[10] io_out[11] io_out[12] io_out[13] io_out[14]
+ io_out[15] io_out[16] io_out[17] io_out[18] io_out[19] io_out[1] io_out[20] io_out[21]
+ io_out[22] io_out[23] io_out[24] io_out[25] io_out[26] io_out[27] io_out[28] io_out[29]
+ io_out[2] io_out[30] io_out[31] io_out[32] io_out[33] io_out[34] io_out[35] io_out[36]
+ io_out[37] io_out[3] io_out[4] io_out[5] io_out[6] io_out[7] io_out[8] io_out[9]
+ la_data_in[0] la_data_in[10] la_data_in[11] la_data_in[12] la_data_in[13] la_data_in[14]
+ la_data_in[15] la_data_in[16] la_data_in[17] la_data_in[18] la_data_in[19] la_data_in[1]
+ la_data_in[20] la_data_in[21] la_data_in[22] la_data_in[23] la_data_in[24] la_data_in[25]
+ la_data_in[26] la_data_in[27] la_data_in[28] la_data_in[29] la_data_in[2] la_data_in[30]
+ la_data_in[31] la_data_in[32] la_data_in[33] la_data_in[34] la_data_in[35] la_data_in[36]
+ la_data_in[37] la_data_in[38] la_data_in[39] la_data_in[3] la_data_in[40] la_data_in[41]
+ la_data_in[42] la_data_in[43] la_data_in[44] la_data_in[45] la_data_in[46] la_data_in[47]
+ la_data_in[48] la_data_in[49] la_data_in[4] la_data_in[50] la_data_in[51] la_data_in[52]
+ la_data_in[53] la_data_in[54] la_data_in[55] la_data_in[56] la_data_in[57] la_data_in[58]
+ la_data_in[59] la_data_in[5] la_data_in[60] la_data_in[61] la_data_in[62] la_data_in[63]
+ la_data_in[6] la_data_in[7] la_data_in[8] la_data_in[9] la_data_out[0] la_data_out[10]
+ la_data_out[11] la_data_out[12] la_data_out[13] la_data_out[14] la_data_out[15]
+ la_data_out[16] la_data_out[17] la_data_out[18] la_data_out[19] la_data_out[1] la_data_out[20]
+ la_data_out[21] la_data_out[22] la_data_out[23] la_data_out[24] la_data_out[25]
+ la_data_out[26] la_data_out[27] la_data_out[28] la_data_out[29] la_data_out[2] la_data_out[30]
+ la_data_out[31] la_data_out[32] la_data_out[33] la_data_out[34] la_data_out[35]
+ la_data_out[36] la_data_out[37] la_data_out[38] la_data_out[39] la_data_out[3] la_data_out[40]
+ la_data_out[41] la_data_out[42] la_data_out[43] la_data_out[44] la_data_out[45]
+ la_data_out[46] la_data_out[47] la_data_out[48] la_data_out[49] la_data_out[4] la_data_out[50]
+ la_data_out[51] la_data_out[52] la_data_out[53] la_data_out[54] la_data_out[55]
+ la_data_out[56] la_data_out[57] la_data_out[58] la_data_out[59] la_data_out[5] la_data_out[60]
+ la_data_out[61] la_data_out[62] la_data_out[63] la_data_out[6] la_data_out[7] la_data_out[8]
+ la_data_out[9] la_oenb[0] la_oenb[10] la_oenb[11] la_oenb[12] la_oenb[13] la_oenb[14]
+ la_oenb[15] la_oenb[16] la_oenb[17] la_oenb[18] la_oenb[19] la_oenb[1] la_oenb[20]
+ la_oenb[21] la_oenb[22] la_oenb[23] la_oenb[24] la_oenb[25] la_oenb[26] la_oenb[27]
+ la_oenb[28] la_oenb[29] la_oenb[2] la_oenb[30] la_oenb[31] la_oenb[32] la_oenb[33]
+ la_oenb[34] la_oenb[35] la_oenb[36] la_oenb[37] la_oenb[38] la_oenb[39] la_oenb[3]
+ la_oenb[40] la_oenb[41] la_oenb[42] la_oenb[43] la_oenb[44] la_oenb[45] la_oenb[46]
+ la_oenb[47] la_oenb[48] la_oenb[49] la_oenb[4] la_oenb[50] la_oenb[51] la_oenb[52]
+ la_oenb[53] la_oenb[54] la_oenb[55] la_oenb[56] la_oenb[57] la_oenb[58] la_oenb[59]
+ la_oenb[5] la_oenb[60] la_oenb[61] la_oenb[62] la_oenb[63] la_oenb[6] la_oenb[7]
+ la_oenb[8] la_oenb[9] user_clock2 user_irq[0] user_irq[1] user_irq[2] vdd vss wb_clk_i
+ wb_rst_i wbs_ack_o wbs_adr_i[0] wbs_adr_i[10] wbs_adr_i[11] wbs_adr_i[12] wbs_adr_i[13]
+ wbs_adr_i[14] wbs_adr_i[15] wbs_adr_i[16] wbs_adr_i[17] wbs_adr_i[18] wbs_adr_i[19]
+ wbs_adr_i[1] wbs_adr_i[20] wbs_adr_i[21] wbs_adr_i[22] wbs_adr_i[23] wbs_adr_i[24]
+ wbs_adr_i[25] wbs_adr_i[26] wbs_adr_i[27] wbs_adr_i[28] wbs_adr_i[29] wbs_adr_i[2]
+ wbs_adr_i[30] wbs_adr_i[31] wbs_adr_i[3] wbs_adr_i[4] wbs_adr_i[5] wbs_adr_i[6]
+ wbs_adr_i[7] wbs_adr_i[8] wbs_adr_i[9] wbs_cyc_i wbs_dat_i[0] wbs_dat_i[10] wbs_dat_i[11]
+ wbs_dat_i[12] wbs_dat_i[13] wbs_dat_i[14] wbs_dat_i[15] wbs_dat_i[16] wbs_dat_i[17]
+ wbs_dat_i[18] wbs_dat_i[19] wbs_dat_i[1] wbs_dat_i[20] wbs_dat_i[21] wbs_dat_i[22]
+ wbs_dat_i[23] wbs_dat_i[24] wbs_dat_i[25] wbs_dat_i[26] wbs_dat_i[27] wbs_dat_i[28]
+ wbs_dat_i[29] wbs_dat_i[2] wbs_dat_i[30] wbs_dat_i[31] wbs_dat_i[3] wbs_dat_i[4]
+ wbs_dat_i[5] wbs_dat_i[6] wbs_dat_i[7] wbs_dat_i[8] wbs_dat_i[9] wbs_dat_o[0] wbs_dat_o[10]
+ wbs_dat_o[11] wbs_dat_o[12] wbs_dat_o[13] wbs_dat_o[14] wbs_dat_o[15] wbs_dat_o[16]
+ wbs_dat_o[17] wbs_dat_o[18] wbs_dat_o[19] wbs_dat_o[1] wbs_dat_o[20] wbs_dat_o[21]
+ wbs_dat_o[22] wbs_dat_o[23] wbs_dat_o[24] wbs_dat_o[25] wbs_dat_o[26] wbs_dat_o[27]
+ wbs_dat_o[28] wbs_dat_o[29] wbs_dat_o[2] wbs_dat_o[30] wbs_dat_o[31] wbs_dat_o[3]
+ wbs_dat_o[4] wbs_dat_o[5] wbs_dat_o[6] wbs_dat_o[7] wbs_dat_o[8] wbs_dat_o[9] wbs_sel_i[0]
+ wbs_sel_i[1] wbs_sel_i[2] wbs_sel_i[3] wbs_stb_i wbs_we_i
XFILLER_41_1205 vdd vss gf180mcu_fd_sc_mcu7t5v0__fill_1
XFILLER_67_531 vdd vss gf180mcu_fd_sc_mcu7t5v0__fill_2
XFILLER_100_138 vdd vss gf180mcu_fd_sc_mcu7t5v0__fill_2
XANTENNA__12902__I0 _06086_ vdd vss gf180mcu_fd_sc_mcu7t5v0__antenna
XFILLER_39_244 vdd vss gf180mcu_fd_sc_mcu7t5v0__fill_2
XFILLER_67_553 vdd vss gf180mcu_fd_sc_mcu7t5v0__fill_2
X_09671_ _03868_ _00106_ vdd vss gf180mcu_fd_sc_mcu7t5v0__clkbuf_1
XFILLER_95_873 vdd vss gf180mcu_fd_sc_mcu7t5v0__fillcap_4
XFILLER_27_406 vdd vss gf180mcu_fd_sc_mcu7t5v0__fill_1
XFILLER_55_715 vdd vss gf180mcu_fd_sc_mcu7t5v0__fillcap_4
XFILLER_94_361 vdd vss gf180mcu_fd_sc_mcu7t5v0__fillcap_8
XFILLER_27_417 vdd vss gf180mcu_fd_sc_mcu7t5v0__fill_2
XFILLER_27_428 vdd vss gf180mcu_fd_sc_mcu7t5v0__fillcap_8
X_08622_ _02053_ _02928_ _02929_ vdd vss gf180mcu_fd_sc_mcu7t5v0__nor2_1
XFILLER_94_372 vdd vss gf180mcu_fd_sc_mcu7t5v0__fillcap_8
XFILLER_55_748 vdd vss gf180mcu_fd_sc_mcu7t5v0__fill_2
XFILLER_82_523 vdd vss gf180mcu_fd_sc_mcu7t5v0__fill_2
XANTENNA__14966__CLK net3 vdd vss gf180mcu_fd_sc_mcu7t5v0__antenna
XFILLER_54_225 vdd vss gf180mcu_fd_sc_mcu7t5v0__fillcap_4
XFILLER_82_534 vdd vss gf180mcu_fd_sc_mcu7t5v0__fill_2
XFILLER_36_940 vdd vss gf180mcu_fd_sc_mcu7t5v0__fill_2
XFILLER_55_759 vdd vss gf180mcu_fd_sc_mcu7t5v0__fill_2
XFILLER_54_247 vdd vss gf180mcu_fd_sc_mcu7t5v0__fill_1
XFILLER_130_1090 vdd vss gf180mcu_fd_sc_mcu7t5v0__fill_1
XFILLER_54_258 vdd vss gf180mcu_fd_sc_mcu7t5v0__fillcap_4
XFILLER_70_707 vdd vss gf180mcu_fd_sc_mcu7t5v0__fill_2
X_08553_ _01949_ _02859_ _02860_ vdd vss gf180mcu_fd_sc_mcu7t5v0__nand2_1
XANTENNA__09287__A1 _03528_ vdd vss gf180mcu_fd_sc_mcu7t5v0__antenna
XFILLER_35_450 vdd vss gf180mcu_fd_sc_mcu7t5v0__fill_1
XFILLER_54_269 vdd vss gf180mcu_fd_sc_mcu7t5v0__fill_2
XFILLER_82_578 vdd vss gf180mcu_fd_sc_mcu7t5v0__fill_1
XFILLER_51_910 vdd vss gf180mcu_fd_sc_mcu7t5v0__fill_2
XFILLER_165_1131 vdd vss gf180mcu_fd_sc_mcu7t5v0__fillcap_4
XANTENNA__12130__I1 mod.u_cpu.rf_ram.memory\[208\]\[0\] vdd vss gf180mcu_fd_sc_mcu7t5v0__antenna
XFILLER_74_1014 vdd vss gf180mcu_fd_sc_mcu7t5v0__fillcap_8
X_07504_ _01787_ _01812_ vdd vss gf180mcu_fd_sc_mcu7t5v0__buf_1
X_08484_ _02041_ mod.u_cpu.rf_ram.memory\[356\]\[1\] _02790_ _02791_ vdd vss gf180mcu_fd_sc_mcu7t5v0__oai21_1
XFILLER_51_932 vdd vss gf180mcu_fd_sc_mcu7t5v0__fill_2
XFILLER_35_494 vdd vss gf180mcu_fd_sc_mcu7t5v0__fill_2
XFILLER_52_18 vdd vss gf180mcu_fd_sc_mcu7t5v0__fill_2
XANTENNA__12830__A2 _05721_ vdd vss gf180mcu_fd_sc_mcu7t5v0__antenna
XFILLER_62_291 vdd vss gf180mcu_fd_sc_mcu7t5v0__fill_2
X_07435_ _01560_ _01743_ vdd vss gf180mcu_fd_sc_mcu7t5v0__clkbuf_1
XFILLER_11_829 vdd vss gf180mcu_fd_sc_mcu7t5v0__fill_1
XFILLER_167_138 vdd vss gf180mcu_fd_sc_mcu7t5v0__fillcap_4
XFILLER_149_842 vdd vss gf180mcu_fd_sc_mcu7t5v0__fillcap_4
XFILLER_167_149 vdd vss gf180mcu_fd_sc_mcu7t5v0__fill_2
XFILLER_148_330 vdd vss gf180mcu_fd_sc_mcu7t5v0__fill_2
X_07366_ mod.u_cpu.rf_ram.memory\[388\]\[0\] mod.u_cpu.rf_ram.memory\[389\]\[0\] mod.u_cpu.rf_ram.memory\[390\]\[0\]
+ mod.u_cpu.rf_ram.memory\[391\]\[0\] _01673_ _01666_ _01674_ vdd vss gf180mcu_fd_sc_mcu7t5v0__mux4_1
XFILLER_176_650 vdd vss gf180mcu_fd_sc_mcu7t5v0__fillcap_4
XFILLER_182_108 vdd vss gf180mcu_fd_sc_mcu7t5v0__fillcap_64
XFILLER_109_728 vdd vss gf180mcu_fd_sc_mcu7t5v0__fill_2
X_09105_ net2 _03405_ vdd vss gf180mcu_fd_sc_mcu7t5v0__clkbuf_1
XFILLER_176_683 vdd vss gf180mcu_fd_sc_mcu7t5v0__fill_2
XFILLER_148_374 vdd vss gf180mcu_fd_sc_mcu7t5v0__fill_2
XFILLER_163_311 vdd vss gf180mcu_fd_sc_mcu7t5v0__fill_2
X_07297_ _01604_ _01605_ vdd vss gf180mcu_fd_sc_mcu7t5v0__clkbuf_2
XANTENNA__14346__CLK net3 vdd vss gf180mcu_fd_sc_mcu7t5v0__antenna
X_09036_ mod.u_cpu.cpu.genblk3.csr.mcause3_0\[0\] _03259_ _03340_ vdd vss gf180mcu_fd_sc_mcu7t5v0__nand2_1
XFILLER_164_889 vdd vss gf180mcu_fd_sc_mcu7t5v0__fill_2
XFILLER_151_517 vdd vss gf180mcu_fd_sc_mcu7t5v0__fill_2
XFILLER_11_1064 vdd vss gf180mcu_fd_sc_mcu7t5v0__fill_1
XFILLER_105_912 vdd vss gf180mcu_fd_sc_mcu7t5v0__fill_2
XFILLER_151_528 vdd vss gf180mcu_fd_sc_mcu7t5v0__fillcap_4
XFILLER_117_783 vdd vss gf180mcu_fd_sc_mcu7t5v0__fill_1
XFILLER_85_1132 vdd vss gf180mcu_fd_sc_mcu7t5v0__fill_1
XFILLER_151_539 vdd vss gf180mcu_fd_sc_mcu7t5v0__fill_2
XANTENNA__08014__A2 _02312_ vdd vss gf180mcu_fd_sc_mcu7t5v0__antenna
XFILLER_172_1102 vdd vss gf180mcu_fd_sc_mcu7t5v0__fillcap_64
XFILLER_116_271 vdd vss gf180mcu_fd_sc_mcu7t5v0__fill_2
XFILLER_105_945 vdd vss gf180mcu_fd_sc_mcu7t5v0__fill_2
XFILLER_46_1105 vdd vss gf180mcu_fd_sc_mcu7t5v0__fill_2
XFILLER_132_742 vdd vss gf180mcu_fd_sc_mcu7t5v0__fill_2
XFILLER_117_55 vdd vss gf180mcu_fd_sc_mcu7t5v0__fill_2
XFILLER_117_66 vdd vss gf180mcu_fd_sc_mcu7t5v0__fill_2
XFILLER_77_26 vdd vss gf180mcu_fd_sc_mcu7t5v0__fillcap_4
XFILLER_78_818 vdd vss gf180mcu_fd_sc_mcu7t5v0__fill_1
XFILLER_89_144 vdd vss gf180mcu_fd_sc_mcu7t5v0__fill_1
XANTENNA__14496__CLK net3 vdd vss gf180mcu_fd_sc_mcu7t5v0__antenna
XANTENNA__13146__I0 mod.u_arbiter.i_wb_cpu_rdt\[24\] vdd vss gf180mcu_fd_sc_mcu7t5v0__antenna
XFILLER_77_306 vdd vss gf180mcu_fd_sc_mcu7t5v0__fill_1
XFILLER_78_829 vdd vss gf180mcu_fd_sc_mcu7t5v0__fill_2
XFILLER_133_1119 vdd vss gf180mcu_fd_sc_mcu7t5v0__fill_1
X_09938_ _04067_ _04068_ vdd vss gf180mcu_fd_sc_mcu7t5v0__clkbuf_1
XANTENNA__13846__A1 _06437_ vdd vss gf180mcu_fd_sc_mcu7t5v0__antenna
XFILLER_58_531 vdd vss gf180mcu_fd_sc_mcu7t5v0__fill_1
XANTENNA__11029__B _04818_ vdd vss gf180mcu_fd_sc_mcu7t5v0__antenna
X_09869_ _04001_ mod.u_cpu.rf_ram.memory\[538\]\[0\] _04020_ _04021_ vdd vss gf180mcu_fd_sc_mcu7t5v0__mux2_2
XTAP_3202 vdd vss gf180mcu_fd_sc_mcu7t5v0__filltie
XTAP_3213 vdd vss gf180mcu_fd_sc_mcu7t5v0__filltie
XFILLER_46_726 vdd vss gf180mcu_fd_sc_mcu7t5v0__fill_2
XTAP_3224 vdd vss gf180mcu_fd_sc_mcu7t5v0__filltie
X_11900_ _05415_ _00788_ vdd vss gf180mcu_fd_sc_mcu7t5v0__clkbuf_1
XFILLER_100_683 vdd vss gf180mcu_fd_sc_mcu7t5v0__fill_2
XTAP_3235 vdd vss gf180mcu_fd_sc_mcu7t5v0__filltie
XANTENNA__14120__S _07044_ vdd vss gf180mcu_fd_sc_mcu7t5v0__antenna
XTAP_2501 vdd vss gf180mcu_fd_sc_mcu7t5v0__filltie
X_12880_ _06076_ _01107_ vdd vss gf180mcu_fd_sc_mcu7t5v0__clkbuf_1
XTAP_3246 vdd vss gf180mcu_fd_sc_mcu7t5v0__filltie
XTAP_3257 vdd vss gf180mcu_fd_sc_mcu7t5v0__filltie
XTAP_2512 vdd vss gf180mcu_fd_sc_mcu7t5v0__filltie
XTAP_3268 vdd vss gf180mcu_fd_sc_mcu7t5v0__filltie
XTAP_2523 vdd vss gf180mcu_fd_sc_mcu7t5v0__filltie
XTAP_3279 vdd vss gf180mcu_fd_sc_mcu7t5v0__filltie
XTAP_2534 vdd vss gf180mcu_fd_sc_mcu7t5v0__filltie
XFILLER_73_567 vdd vss gf180mcu_fd_sc_mcu7t5v0__fill_1
X_11831_ _05365_ _00769_ vdd vss gf180mcu_fd_sc_mcu7t5v0__clkbuf_1
XTAP_2545 vdd vss gf180mcu_fd_sc_mcu7t5v0__filltie
XFILLER_57_1201 vdd vss gf180mcu_fd_sc_mcu7t5v0__fillcap_4
XTAP_1800 vdd vss gf180mcu_fd_sc_mcu7t5v0__filltie
XFILLER_165_2 vdd vss gf180mcu_fd_sc_mcu7t5v0__fillcap_4
XTAP_2556 vdd vss gf180mcu_fd_sc_mcu7t5v0__filltie
XFILLER_26_450 vdd vss gf180mcu_fd_sc_mcu7t5v0__fill_1
XTAP_1811 vdd vss gf180mcu_fd_sc_mcu7t5v0__filltie
XTAP_1822 vdd vss gf180mcu_fd_sc_mcu7t5v0__filltie
XTAP_2567 vdd vss gf180mcu_fd_sc_mcu7t5v0__filltie
XFILLER_92_1114 vdd vss gf180mcu_fd_sc_mcu7t5v0__fill_2
XTAP_2578 vdd vss gf180mcu_fd_sc_mcu7t5v0__filltie
X_14550_ _00404_ net3 mod.u_cpu.rf_ram.memory\[412\]\[0\] vdd vss gf180mcu_fd_sc_mcu7t5v0__dffq_1
XFILLER_42_932 vdd vss gf180mcu_fd_sc_mcu7t5v0__fillcap_16
XTAP_1833 vdd vss gf180mcu_fd_sc_mcu7t5v0__filltie
XFILLER_187_904 vdd vss gf180mcu_fd_sc_mcu7t5v0__fill_1
XANTENNA__10132__I0 _04193_ vdd vss gf180mcu_fd_sc_mcu7t5v0__antenna
XTAP_2589 vdd vss gf180mcu_fd_sc_mcu7t5v0__filltie
X_11762_ _05318_ _00747_ vdd vss gf180mcu_fd_sc_mcu7t5v0__clkbuf_1
XTAP_1844 vdd vss gf180mcu_fd_sc_mcu7t5v0__filltie
XFILLER_159_606 vdd vss gf180mcu_fd_sc_mcu7t5v0__fill_2
XFILLER_42_954 vdd vss gf180mcu_fd_sc_mcu7t5v0__fill_1
XTAP_1855 vdd vss gf180mcu_fd_sc_mcu7t5v0__filltie
XTAP_1866 vdd vss gf180mcu_fd_sc_mcu7t5v0__filltie
X_13501_ _06559_ _01245_ vdd vss gf180mcu_fd_sc_mcu7t5v0__clkinv_1
XFILLER_158_105 vdd vss gf180mcu_fd_sc_mcu7t5v0__fill_1
XANTENNA__15121__CLK net3 vdd vss gf180mcu_fd_sc_mcu7t5v0__antenna
XFILLER_13_144 vdd vss gf180mcu_fd_sc_mcu7t5v0__fillcap_64
XTAP_1877 vdd vss gf180mcu_fd_sc_mcu7t5v0__filltie
X_10713_ _04172_ _04570_ _04603_ vdd vss gf180mcu_fd_sc_mcu7t5v0__nand2_1
XANTENNA__14023__A1 mod.u_arbiter.i_wb_cpu_rdt\[18\] vdd vss gf180mcu_fd_sc_mcu7t5v0__antenna
X_14481_ _00335_ net3 mod.u_cpu.rf_ram.memory\[447\]\[1\] vdd vss gf180mcu_fd_sc_mcu7t5v0__dffq_1
XANTENNA__12575__S _05871_ vdd vss gf180mcu_fd_sc_mcu7t5v0__antenna
XTAP_1888 vdd vss gf180mcu_fd_sc_mcu7t5v0__filltie
XFILLER_158_127 vdd vss gf180mcu_fd_sc_mcu7t5v0__fill_2
X_11693_ _05271_ mod.u_cpu.rf_ram.memory\[251\]\[1\] _05269_ _05272_ vdd vss gf180mcu_fd_sc_mcu7t5v0__mux2_2
XTAP_1899 vdd vss gf180mcu_fd_sc_mcu7t5v0__filltie
XFILLER_9_137 vdd vss gf180mcu_fd_sc_mcu7t5v0__fillcap_4
X_13432_ _03508_ _06511_ _06514_ _03507_ _06517_ vdd vss gf180mcu_fd_sc_mcu7t5v0__aoi22_1
X_10644_ _04556_ _00391_ vdd vss gf180mcu_fd_sc_mcu7t5v0__clkbuf_1
XFILLER_155_801 vdd vss gf180mcu_fd_sc_mcu7t5v0__fill_1
XFILLER_173_108 vdd vss gf180mcu_fd_sc_mcu7t5v0__fillcap_4
XFILLER_158_51 vdd vss gf180mcu_fd_sc_mcu7t5v0__fill_2
XFILLER_154_300 vdd vss gf180mcu_fd_sc_mcu7t5v0__fill_2
XANTENNA__10435__I1 _04383_ vdd vss gf180mcu_fd_sc_mcu7t5v0__antenna
X_13363_ _06458_ _06459_ vdd vss gf180mcu_fd_sc_mcu7t5v0__clkbuf_1
X_10575_ _04498_ mod.u_cpu.rf_ram.memory\[430\]\[1\] _04508_ _04510_ vdd vss gf180mcu_fd_sc_mcu7t5v0__mux2_2
XFILLER_10_884 vdd vss gf180mcu_fd_sc_mcu7t5v0__fill_2
XFILLER_166_193 vdd vss gf180mcu_fd_sc_mcu7t5v0__fill_2
XANTENNA__15271__CLK net4 vdd vss gf180mcu_fd_sc_mcu7t5v0__antenna
XFILLER_155_856 vdd vss gf180mcu_fd_sc_mcu7t5v0__fill_1
X_15102_ _00956_ net3 mod.u_cpu.rf_ram.memory\[489\]\[0\] vdd vss gf180mcu_fd_sc_mcu7t5v0__dffq_1
XANTENNA__10060__A2 _04143_ vdd vss gf180mcu_fd_sc_mcu7t5v0__antenna
XFILLER_155_867 vdd vss gf180mcu_fd_sc_mcu7t5v0__fill_2
XFILLER_154_344 vdd vss gf180mcu_fd_sc_mcu7t5v0__fillcap_4
X_12314_ _03696_ _05694_ vdd vss gf180mcu_fd_sc_mcu7t5v0__clkbuf_1
XFILLER_181_141 vdd vss gf180mcu_fd_sc_mcu7t5v0__fill_1
X_13294_ _06281_ _06284_ _06391_ _06392_ vdd vss gf180mcu_fd_sc_mcu7t5v0__nor3_1
XFILLER_170_815 vdd vss gf180mcu_fd_sc_mcu7t5v0__fill_1
XFILLER_5_354 vdd vss gf180mcu_fd_sc_mcu7t5v0__fill_1
XANTENNA__14839__CLK net3 vdd vss gf180mcu_fd_sc_mcu7t5v0__antenna
XFILLER_154_388 vdd vss gf180mcu_fd_sc_mcu7t5v0__fill_2
X_15033_ _00887_ net3 mod.u_cpu.rf_ram.memory\[201\]\[1\] vdd vss gf180mcu_fd_sc_mcu7t5v0__dffq_1
XFILLER_154_399 vdd vss gf180mcu_fd_sc_mcu7t5v0__fill_2
XFILLER_107_260 vdd vss gf180mcu_fd_sc_mcu7t5v0__fill_2
XANTENNA__10823__S _04676_ vdd vss gf180mcu_fd_sc_mcu7t5v0__antenna
X_12245_ _05635_ mod.u_cpu.rf_ram.memory\[196\]\[1\] _05646_ _05648_ vdd vss gf180mcu_fd_sc_mcu7t5v0__mux2_2
XFILLER_170_859 vdd vss gf180mcu_fd_sc_mcu7t5v0__fill_2
XANTENNA__10199__I0 _04249_ vdd vss gf180mcu_fd_sc_mcu7t5v0__antenna
XFILLER_107_271 vdd vss gf180mcu_fd_sc_mcu7t5v0__fillcap_8
XFILLER_64_1205 vdd vss gf180mcu_fd_sc_mcu7t5v0__fill_1
XFILLER_174_61 vdd vss gf180mcu_fd_sc_mcu7t5v0__fill_1
XANTENNA__09683__I _03739_ vdd vss gf180mcu_fd_sc_mcu7t5v0__antenna
XFILLER_123_753 vdd vss gf180mcu_fd_sc_mcu7t5v0__fill_2
XFILLER_174_72 vdd vss gf180mcu_fd_sc_mcu7t5v0__fill_2
XFILLER_111_904 vdd vss gf180mcu_fd_sc_mcu7t5v0__fill_2
X_12176_ _05600_ _00879_ vdd vss gf180mcu_fd_sc_mcu7t5v0__clkbuf_1
XANTENNA__10899__A1 _04163_ vdd vss gf180mcu_fd_sc_mcu7t5v0__antenna
XANTENNA__13137__I0 mod.u_arbiter.i_wb_cpu_rdt\[20\] vdd vss gf180mcu_fd_sc_mcu7t5v0__antenna
XFILLER_110_403 vdd vss gf180mcu_fd_sc_mcu7t5v0__fill_2
XFILLER_111_937 vdd vss gf180mcu_fd_sc_mcu7t5v0__fill_2
XFILLER_1_560 vdd vss gf180mcu_fd_sc_mcu7t5v0__fillcap_4
XFILLER_150_583 vdd vss gf180mcu_fd_sc_mcu7t5v0__fill_2
X_11127_ _04847_ _04887_ vdd vss gf180mcu_fd_sc_mcu7t5v0__clkbuf_1
XFILLER_150_594 vdd vss gf180mcu_fd_sc_mcu7t5v0__fill_2
XFILLER_49_520 vdd vss gf180mcu_fd_sc_mcu7t5v0__fillcap_4
XANTENNA__13837__A1 _06340_ vdd vss gf180mcu_fd_sc_mcu7t5v0__antenna
XANTENNA__14989__CLK net3 vdd vss gf180mcu_fd_sc_mcu7t5v0__antenna
XFILLER_77_851 vdd vss gf180mcu_fd_sc_mcu7t5v0__fill_1
XFILLER_67_70 vdd vss gf180mcu_fd_sc_mcu7t5v0__fill_1
X_11058_ _03984_ _04838_ vdd vss gf180mcu_fd_sc_mcu7t5v0__buf_1
XFILLER_64_501 vdd vss gf180mcu_fd_sc_mcu7t5v0__fill_2
XFILLER_97_1003 vdd vss gf180mcu_fd_sc_mcu7t5v0__fillcap_4
X_10009_ _04115_ mod.u_cpu.rf_ram.memory\[516\]\[1\] _04113_ _04116_ vdd vss gf180mcu_fd_sc_mcu7t5v0__mux2_2
XFILLER_77_895 vdd vss gf180mcu_fd_sc_mcu7t5v0__fill_2
XFILLER_64_534 vdd vss gf180mcu_fd_sc_mcu7t5v0__fillcap_4
XANTENNA__10371__I0 _04363_ vdd vss gf180mcu_fd_sc_mcu7t5v0__antenna
XFILLER_149_1104 vdd vss gf180mcu_fd_sc_mcu7t5v0__fill_2
XFILLER_36_247 vdd vss gf180mcu_fd_sc_mcu7t5v0__fill_1
XFILLER_92_865 vdd vss gf180mcu_fd_sc_mcu7t5v0__fillcap_4
X_14817_ _00671_ net3 mod.u_cpu.rf_ram.memory\[27\]\[1\] vdd vss gf180mcu_fd_sc_mcu7t5v0__dffq_1
XFILLER_92_876 vdd vss gf180mcu_fd_sc_mcu7t5v0__fill_2
XFILLER_184_1028 vdd vss gf180mcu_fd_sc_mcu7t5v0__fill_1
XFILLER_36_269 vdd vss gf180mcu_fd_sc_mcu7t5v0__fill_2
XFILLER_17_450 vdd vss gf180mcu_fd_sc_mcu7t5v0__fill_2
XFILLER_64_589 vdd vss gf180mcu_fd_sc_mcu7t5v0__fill_1
XANTENNA__11453__I _05107_ vdd vss gf180mcu_fd_sc_mcu7t5v0__antenna
XFILLER_17_483 vdd vss gf180mcu_fd_sc_mcu7t5v0__fill_2
XFILLER_83_80 vdd vss gf180mcu_fd_sc_mcu7t5v0__fill_1
X_14748_ _00602_ net3 mod.u_cpu.rf_ram.memory\[313\]\[0\] vdd vss gf180mcu_fd_sc_mcu7t5v0__dffq_1
XFILLER_33_976 vdd vss gf180mcu_fd_sc_mcu7t5v0__fill_2
XFILLER_177_425 vdd vss gf180mcu_fd_sc_mcu7t5v0__fill_1
XFILLER_32_453 vdd vss gf180mcu_fd_sc_mcu7t5v0__fill_1
XANTENNA__11871__I0 _05383_ vdd vss gf180mcu_fd_sc_mcu7t5v0__antenna
X_14679_ _00533_ net3 mod.u_cpu.rf_ram.memory\[348\]\[1\] vdd vss gf180mcu_fd_sc_mcu7t5v0__dffq_1
XANTENNA__14369__CLK net3 vdd vss gf180mcu_fd_sc_mcu7t5v0__antenna
XFILLER_33_998 vdd vss gf180mcu_fd_sc_mcu7t5v0__fill_1
XFILLER_60_784 vdd vss gf180mcu_fd_sc_mcu7t5v0__fill_2
XFILLER_149_138 vdd vss gf180mcu_fd_sc_mcu7t5v0__fill_1
X_07220_ _01527_ _01528_ vdd vss gf180mcu_fd_sc_mcu7t5v0__clkbuf_1
XFILLER_193_918 vdd vss gf180mcu_fd_sc_mcu7t5v0__fillcap_4
XFILLER_34_1031 vdd vss gf180mcu_fd_sc_mcu7t5v0__fill_1
XFILLER_80_2 vdd vss gf180mcu_fd_sc_mcu7t5v0__fill_1
XANTENNA__15614__CLK net3 vdd vss gf180mcu_fd_sc_mcu7t5v0__antenna
XFILLER_164_108 vdd vss gf180mcu_fd_sc_mcu7t5v0__fill_2