* NGSPICE file created from tiny_user_project.ext - technology: gf180mcuC

* Black-box entry subcircuit for gf180mcu_fd_sc_mcu7t5v0__antenna abstract view
.subckt gf180mcu_fd_sc_mcu7t5v0__antenna I VDD VSS
.ends

* Black-box entry subcircuit for gf180mcu_fd_sc_mcu7t5v0__fill_2 abstract view
.subckt gf180mcu_fd_sc_mcu7t5v0__fill_2 VDD VSS
.ends

* Black-box entry subcircuit for gf180mcu_fd_sc_mcu7t5v0__nand2_1 abstract view
.subckt gf180mcu_fd_sc_mcu7t5v0__nand2_1 A1 A2 ZN VDD VSS
.ends

* Black-box entry subcircuit for gf180mcu_fd_sc_mcu7t5v0__tiel abstract view
.subckt gf180mcu_fd_sc_mcu7t5v0__tiel ZN VDD VSS
.ends

* Black-box entry subcircuit for gf180mcu_fd_sc_mcu7t5v0__fill_1 abstract view
.subckt gf180mcu_fd_sc_mcu7t5v0__fill_1 VDD VSS
.ends

* Black-box entry subcircuit for gf180mcu_fd_sc_mcu7t5v0__inv_1 abstract view
.subckt gf180mcu_fd_sc_mcu7t5v0__inv_1 I ZN VDD VSS
.ends

* Black-box entry subcircuit for gf180mcu_fd_sc_mcu7t5v0__fillcap_16 abstract view
.subckt gf180mcu_fd_sc_mcu7t5v0__fillcap_16 VDD VSS
.ends

* Black-box entry subcircuit for gf180mcu_fd_sc_mcu7t5v0__fillcap_4 abstract view
.subckt gf180mcu_fd_sc_mcu7t5v0__fillcap_4 VDD VSS
.ends

* Black-box entry subcircuit for gf180mcu_fd_sc_mcu7t5v0__fillcap_64 abstract view
.subckt gf180mcu_fd_sc_mcu7t5v0__fillcap_64 VDD VSS
.ends

* Black-box entry subcircuit for gf180mcu_fd_sc_mcu7t5v0__filltie abstract view
.subckt gf180mcu_fd_sc_mcu7t5v0__filltie VDD VSS
.ends

* Black-box entry subcircuit for gf180mcu_fd_sc_mcu7t5v0__fillcap_32 abstract view
.subckt gf180mcu_fd_sc_mcu7t5v0__fillcap_32 VDD VSS
.ends

* Black-box entry subcircuit for gf180mcu_fd_sc_mcu7t5v0__dffq_1 abstract view
.subckt gf180mcu_fd_sc_mcu7t5v0__dffq_1 D CLK Q VDD VSS
.ends

* Black-box entry subcircuit for gf180mcu_fd_sc_mcu7t5v0__buf_1 abstract view
.subckt gf180mcu_fd_sc_mcu7t5v0__buf_1 I Z VDD VSS
.ends

* Black-box entry subcircuit for gf180mcu_fd_sc_mcu7t5v0__fillcap_8 abstract view
.subckt gf180mcu_fd_sc_mcu7t5v0__fillcap_8 VDD VSS
.ends

* Black-box entry subcircuit for gf180mcu_fd_sc_mcu7t5v0__oai21_1 abstract view
.subckt gf180mcu_fd_sc_mcu7t5v0__oai21_1 A1 A2 B ZN VDD VSS
.ends

* Black-box entry subcircuit for gf180mcu_fd_sc_mcu7t5v0__nor3_1 abstract view
.subckt gf180mcu_fd_sc_mcu7t5v0__nor3_1 A1 A2 A3 ZN VDD VSS
.ends

* Black-box entry subcircuit for gf180mcu_fd_sc_mcu7t5v0__oai211_1 abstract view
.subckt gf180mcu_fd_sc_mcu7t5v0__oai211_1 A1 A2 B C ZN VDD VSS
.ends

* Black-box entry subcircuit for gf180mcu_fd_sc_mcu7t5v0__nor2_1 abstract view
.subckt gf180mcu_fd_sc_mcu7t5v0__nor2_1 A1 A2 ZN VDD VSS
.ends

* Black-box entry subcircuit for gf180mcu_fd_sc_mcu7t5v0__aoi22_1 abstract view
.subckt gf180mcu_fd_sc_mcu7t5v0__aoi22_1 A1 A2 B1 B2 ZN VDD VSS
.ends

* Black-box entry subcircuit for gf180mcu_fd_sc_mcu7t5v0__aoi221_1 abstract view
.subckt gf180mcu_fd_sc_mcu7t5v0__aoi221_1 A1 A2 B1 B2 C ZN VDD VSS
.ends

* Black-box entry subcircuit for gf180mcu_fd_sc_mcu7t5v0__endcap abstract view
.subckt gf180mcu_fd_sc_mcu7t5v0__endcap VDD VSS
.ends

* Black-box entry subcircuit for gf180mcu_fd_sc_mcu7t5v0__sdffq_1 abstract view
.subckt gf180mcu_fd_sc_mcu7t5v0__sdffq_1 D SE SI CLK Q VDD VSS
.ends

* Black-box entry subcircuit for gf180mcu_fd_sc_mcu7t5v0__mux2_2 abstract view
.subckt gf180mcu_fd_sc_mcu7t5v0__mux2_2 I0 I1 S Z VDD VSS
.ends

* Black-box entry subcircuit for gf180mcu_fd_sc_mcu7t5v0__clkinv_1 abstract view
.subckt gf180mcu_fd_sc_mcu7t5v0__clkinv_1 I ZN VDD VSS
.ends

* Black-box entry subcircuit for gf180mcu_fd_sc_mcu7t5v0__aoi21_1 abstract view
.subckt gf180mcu_fd_sc_mcu7t5v0__aoi21_1 A1 A2 B ZN VDD VSS
.ends

* Black-box entry subcircuit for gf180mcu_fd_sc_mcu7t5v0__xor2_1 abstract view
.subckt gf180mcu_fd_sc_mcu7t5v0__xor2_1 A1 A2 Z VDD VSS
.ends

* Black-box entry subcircuit for gf180mcu_fd_sc_mcu7t5v0__tieh abstract view
.subckt gf180mcu_fd_sc_mcu7t5v0__tieh Z VDD VSS
.ends

* Black-box entry subcircuit for gf180mcu_fd_sc_mcu7t5v0__nand3_1 abstract view
.subckt gf180mcu_fd_sc_mcu7t5v0__nand3_1 A1 A2 A3 ZN VDD VSS
.ends

* Black-box entry subcircuit for gf180mcu_fd_sc_mcu7t5v0__clkbuf_16 abstract view
.subckt gf180mcu_fd_sc_mcu7t5v0__clkbuf_16 I Z VDD VSS
.ends

* Black-box entry subcircuit for gf180mcu_fd_sc_mcu7t5v0__aoi222_1 abstract view
.subckt gf180mcu_fd_sc_mcu7t5v0__aoi222_1 A1 A2 B1 B2 C1 C2 ZN VDD VSS
.ends

* Black-box entry subcircuit for gf180mcu_fd_sc_mcu7t5v0__and3_1 abstract view
.subckt gf180mcu_fd_sc_mcu7t5v0__and3_1 A1 A2 A3 Z VDD VSS
.ends

* Black-box entry subcircuit for gf180mcu_fd_sc_mcu7t5v0__and2_1 abstract view
.subckt gf180mcu_fd_sc_mcu7t5v0__and2_1 A1 A2 Z VDD VSS
.ends

* Black-box entry subcircuit for gf180mcu_fd_sc_mcu7t5v0__aoi211_1 abstract view
.subckt gf180mcu_fd_sc_mcu7t5v0__aoi211_1 A1 A2 B C ZN VDD VSS
.ends

* Black-box entry subcircuit for gf180mcu_fd_sc_mcu7t5v0__or2_1 abstract view
.subckt gf180mcu_fd_sc_mcu7t5v0__or2_1 A1 A2 Z VDD VSS
.ends

* Black-box entry subcircuit for gf180mcu_fd_sc_mcu7t5v0__nand4_1 abstract view
.subckt gf180mcu_fd_sc_mcu7t5v0__nand4_1 A1 A2 A3 A4 ZN VDD VSS
.ends

* Black-box entry subcircuit for gf180mcu_fd_sc_mcu7t5v0__oai22_1 abstract view
.subckt gf180mcu_fd_sc_mcu7t5v0__oai22_1 A1 A2 B1 B2 ZN VDD VSS
.ends

* Black-box entry subcircuit for gf180mcu_fd_sc_mcu7t5v0__nor4_1 abstract view
.subckt gf180mcu_fd_sc_mcu7t5v0__nor4_1 A1 A2 A3 A4 ZN VDD VSS
.ends

* Black-box entry subcircuit for gf180mcu_fd_sc_mcu7t5v0__or3_1 abstract view
.subckt gf180mcu_fd_sc_mcu7t5v0__or3_1 A1 A2 A3 Z VDD VSS
.ends

* Black-box entry subcircuit for gf180mcu_fd_sc_mcu7t5v0__oai31_1 abstract view
.subckt gf180mcu_fd_sc_mcu7t5v0__oai31_1 A1 A2 A3 B ZN VDD VSS
.ends

* Black-box entry subcircuit for gf180mcu_fd_sc_mcu7t5v0__and4_1 abstract view
.subckt gf180mcu_fd_sc_mcu7t5v0__and4_1 A1 A2 A3 A4 Z VDD VSS
.ends

* Black-box entry subcircuit for gf180mcu_fd_sc_mcu7t5v0__oai32_1 abstract view
.subckt gf180mcu_fd_sc_mcu7t5v0__oai32_1 A1 A2 A3 B1 B2 ZN VDD VSS
.ends

* Black-box entry subcircuit for gf180mcu_fd_sc_mcu7t5v0__oai221_1 abstract view
.subckt gf180mcu_fd_sc_mcu7t5v0__oai221_1 A1 A2 B1 B2 C ZN VDD VSS
.ends

* Black-box entry subcircuit for gf180mcu_fd_sc_mcu7t5v0__clkbuf_2 abstract view
.subckt gf180mcu_fd_sc_mcu7t5v0__clkbuf_2 I Z VDD VSS
.ends

* Black-box entry subcircuit for gf180mcu_fd_sc_mcu7t5v0__xnor2_1 abstract view
.subckt gf180mcu_fd_sc_mcu7t5v0__xnor2_1 A1 A2 ZN VDD VSS
.ends

* Black-box entry subcircuit for gf180mcu_fd_sc_mcu7t5v0__xor3_1 abstract view
.subckt gf180mcu_fd_sc_mcu7t5v0__xor3_1 A1 A2 A3 Z VDD VSS
.ends

* Black-box entry subcircuit for gf180mcu_fd_ip_sram__sram256x8m8wm1 abstract view
.subckt gf180mcu_fd_ip_sram__sram256x8m8wm1 A[0] A[1] A[2] A[3] A[4] A[5] A[6] A[7]
+ CEN CLK D[0] D[1] D[2] D[3] D[4] D[5] D[6] D[7] GWEN Q[0] Q[1] Q[2] Q[3] Q[4] Q[5]
+ Q[6] Q[7] WEN[0] WEN[1] WEN[2] WEN[3] WEN[4] WEN[5] WEN[6] WEN[7] VDD VSS
.ends

* Black-box entry subcircuit for gf180mcu_fd_sc_mcu7t5v0__buf_4 abstract view
.subckt gf180mcu_fd_sc_mcu7t5v0__buf_4 I Z VDD VSS
.ends

* Black-box entry subcircuit for gf180mcu_fd_sc_mcu7t5v0__buf_2 abstract view
.subckt gf180mcu_fd_sc_mcu7t5v0__buf_2 I Z VDD VSS
.ends

* Black-box entry subcircuit for gf180mcu_fd_sc_mcu7t5v0__or4_1 abstract view
.subckt gf180mcu_fd_sc_mcu7t5v0__or4_1 A1 A2 A3 A4 Z VDD VSS
.ends

* Black-box entry subcircuit for gf180mcu_fd_sc_mcu7t5v0__dffnq_1 abstract view
.subckt gf180mcu_fd_sc_mcu7t5v0__dffnq_1 D CLKN Q VDD VSS
.ends

* Black-box entry subcircuit for gf180mcu_fd_sc_mcu7t5v0__oai222_1 abstract view
.subckt gf180mcu_fd_sc_mcu7t5v0__oai222_1 A1 A2 B1 B2 C1 C2 ZN VDD VSS
.ends

* Black-box entry subcircuit for gf180mcu_fd_sc_mcu7t5v0__mux4_1 abstract view
.subckt gf180mcu_fd_sc_mcu7t5v0__mux4_1 I0 I1 I2 I3 S0 S1 Z VDD VSS
.ends

.subckt tiny_user_project io_in[0] io_in[10] io_in[11] io_in[12] io_in[13] io_in[14]
+ io_in[15] io_in[16] io_in[17] io_in[18] io_in[19] io_in[1] io_in[20] io_in[21] io_in[22]
+ io_in[23] io_in[24] io_in[25] io_in[26] io_in[27] io_in[28] io_in[29] io_in[2] io_in[30]
+ io_in[31] io_in[32] io_in[33] io_in[34] io_in[35] io_in[36] io_in[37] io_in[3] io_in[4]
+ io_in[5] io_in[6] io_in[7] io_in[8] io_in[9] io_oeb[0] io_oeb[10] io_oeb[11] io_oeb[12]
+ io_oeb[13] io_oeb[14] io_oeb[15] io_oeb[16] io_oeb[17] io_oeb[18] io_oeb[19] io_oeb[1]
+ io_oeb[20] io_oeb[21] io_oeb[22] io_oeb[23] io_oeb[24] io_oeb[25] io_oeb[26] io_oeb[27]
+ io_oeb[28] io_oeb[29] io_oeb[2] io_oeb[30] io_oeb[31] io_oeb[32] io_oeb[33] io_oeb[34]
+ io_oeb[35] io_oeb[36] io_oeb[37] io_oeb[3] io_oeb[4] io_oeb[5] io_oeb[6] io_oeb[7]
+ io_oeb[8] io_oeb[9] io_out[0] io_out[10] io_out[11] io_out[12] io_out[13] io_out[14]
+ io_out[15] io_out[16] io_out[17] io_out[18] io_out[19] io_out[1] io_out[20] io_out[21]
+ io_out[22] io_out[23] io_out[24] io_out[25] io_out[26] io_out[27] io_out[28] io_out[29]
+ io_out[2] io_out[30] io_out[31] io_out[32] io_out[33] io_out[34] io_out[35] io_out[36]
+ io_out[37] io_out[3] io_out[4] io_out[5] io_out[6] io_out[7] io_out[8] io_out[9]
+ la_data_in[0] la_data_in[10] la_data_in[11] la_data_in[12] la_data_in[13] la_data_in[14]
+ la_data_in[15] la_data_in[16] la_data_in[17] la_data_in[18] la_data_in[19] la_data_in[1]
+ la_data_in[20] la_data_in[21] la_data_in[22] la_data_in[23] la_data_in[24] la_data_in[25]
+ la_data_in[26] la_data_in[27] la_data_in[28] la_data_in[29] la_data_in[2] la_data_in[30]
+ la_data_in[31] la_data_in[32] la_data_in[33] la_data_in[34] la_data_in[35] la_data_in[36]
+ la_data_in[37] la_data_in[38] la_data_in[39] la_data_in[3] la_data_in[40] la_data_in[41]
+ la_data_in[42] la_data_in[43] la_data_in[44] la_data_in[45] la_data_in[46] la_data_in[47]
+ la_data_in[48] la_data_in[49] la_data_in[4] la_data_in[50] la_data_in[51] la_data_in[52]
+ la_data_in[53] la_data_in[54] la_data_in[55] la_data_in[56] la_data_in[57] la_data_in[58]
+ la_data_in[59] la_data_in[5] la_data_in[60] la_data_in[61] la_data_in[62] la_data_in[63]
+ la_data_in[6] la_data_in[7] la_data_in[8] la_data_in[9] la_data_out[0] la_data_out[10]
+ la_data_out[11] la_data_out[12] la_data_out[13] la_data_out[14] la_data_out[15]
+ la_data_out[16] la_data_out[17] la_data_out[18] la_data_out[19] la_data_out[1] la_data_out[20]
+ la_data_out[21] la_data_out[22] la_data_out[23] la_data_out[24] la_data_out[25]
+ la_data_out[26] la_data_out[27] la_data_out[28] la_data_out[29] la_data_out[2] la_data_out[30]
+ la_data_out[31] la_data_out[32] la_data_out[33] la_data_out[34] la_data_out[35]
+ la_data_out[36] la_data_out[37] la_data_out[38] la_data_out[39] la_data_out[3] la_data_out[40]
+ la_data_out[41] la_data_out[42] la_data_out[43] la_data_out[44] la_data_out[45]
+ la_data_out[46] la_data_out[47] la_data_out[48] la_data_out[49] la_data_out[4] la_data_out[50]
+ la_data_out[51] la_data_out[52] la_data_out[53] la_data_out[54] la_data_out[55]
+ la_data_out[56] la_data_out[57] la_data_out[58] la_data_out[59] la_data_out[5] la_data_out[60]
+ la_data_out[61] la_data_out[62] la_data_out[63] la_data_out[6] la_data_out[7] la_data_out[8]
+ la_data_out[9] la_oenb[0] la_oenb[10] la_oenb[11] la_oenb[12] la_oenb[13] la_oenb[14]
+ la_oenb[15] la_oenb[16] la_oenb[17] la_oenb[18] la_oenb[19] la_oenb[1] la_oenb[20]
+ la_oenb[21] la_oenb[22] la_oenb[23] la_oenb[24] la_oenb[25] la_oenb[26] la_oenb[27]
+ la_oenb[28] la_oenb[29] la_oenb[2] la_oenb[30] la_oenb[31] la_oenb[32] la_oenb[33]
+ la_oenb[34] la_oenb[35] la_oenb[36] la_oenb[37] la_oenb[38] la_oenb[39] la_oenb[3]
+ la_oenb[40] la_oenb[41] la_oenb[42] la_oenb[43] la_oenb[44] la_oenb[45] la_oenb[46]
+ la_oenb[47] la_oenb[48] la_oenb[49] la_oenb[4] la_oenb[50] la_oenb[51] la_oenb[52]
+ la_oenb[53] la_oenb[54] la_oenb[55] la_oenb[56] la_oenb[57] la_oenb[58] la_oenb[59]
+ la_oenb[5] la_oenb[60] la_oenb[61] la_oenb[62] la_oenb[63] la_oenb[6] la_oenb[7]
+ la_oenb[8] la_oenb[9] user_clock2 user_irq[0] user_irq[1] user_irq[2] vdd vss wb_clk_i
+ wb_rst_i wbs_ack_o wbs_adr_i[0] wbs_adr_i[10] wbs_adr_i[11] wbs_adr_i[12] wbs_adr_i[13]
+ wbs_adr_i[14] wbs_adr_i[15] wbs_adr_i[16] wbs_adr_i[17] wbs_adr_i[18] wbs_adr_i[19]
+ wbs_adr_i[1] wbs_adr_i[20] wbs_adr_i[21] wbs_adr_i[22] wbs_adr_i[23] wbs_adr_i[24]
+ wbs_adr_i[25] wbs_adr_i[26] wbs_adr_i[27] wbs_adr_i[28] wbs_adr_i[29] wbs_adr_i[2]
+ wbs_adr_i[30] wbs_adr_i[31] wbs_adr_i[3] wbs_adr_i[4] wbs_adr_i[5] wbs_adr_i[6]
+ wbs_adr_i[7] wbs_adr_i[8] wbs_adr_i[9] wbs_cyc_i wbs_dat_i[0] wbs_dat_i[10] wbs_dat_i[11]
+ wbs_dat_i[12] wbs_dat_i[13] wbs_dat_i[14] wbs_dat_i[15] wbs_dat_i[16] wbs_dat_i[17]
+ wbs_dat_i[18] wbs_dat_i[19] wbs_dat_i[1] wbs_dat_i[20] wbs_dat_i[21] wbs_dat_i[22]
+ wbs_dat_i[23] wbs_dat_i[24] wbs_dat_i[25] wbs_dat_i[26] wbs_dat_i[27] wbs_dat_i[28]
+ wbs_dat_i[29] wbs_dat_i[2] wbs_dat_i[30] wbs_dat_i[31] wbs_dat_i[3] wbs_dat_i[4]
+ wbs_dat_i[5] wbs_dat_i[6] wbs_dat_i[7] wbs_dat_i[8] wbs_dat_i[9] wbs_dat_o[0] wbs_dat_o[10]
+ wbs_dat_o[11] wbs_dat_o[12] wbs_dat_o[13] wbs_dat_o[14] wbs_dat_o[15] wbs_dat_o[16]
+ wbs_dat_o[17] wbs_dat_o[18] wbs_dat_o[19] wbs_dat_o[1] wbs_dat_o[20] wbs_dat_o[21]
+ wbs_dat_o[22] wbs_dat_o[23] wbs_dat_o[24] wbs_dat_o[25] wbs_dat_o[26] wbs_dat_o[27]
+ wbs_dat_o[28] wbs_dat_o[29] wbs_dat_o[2] wbs_dat_o[30] wbs_dat_o[31] wbs_dat_o[3]
+ wbs_dat_o[4] wbs_dat_o[5] wbs_dat_o[6] wbs_dat_o[7] wbs_dat_o[8] wbs_dat_o[9] wbs_sel_i[0]
+ wbs_sel_i[1] wbs_sel_i[2] wbs_sel_i[3] wbs_stb_i wbs_we_i
XANTENNA_mod.u_scanchain_local.scan_flop\[57\]_CLK clknet_3_6__leaf_mod.u_scanchain_local.clk
+ vdd vss gf180mcu_fd_sc_mcu7t5v0__antenna
XFILLER_95_851 vdd vss gf180mcu_fd_sc_mcu7t5v0__fill_2
XANTENNA__2479__B1 _0750_ vdd vss gf180mcu_fd_sc_mcu7t5v0__antenna
XFILLER_41_1205 vdd vss gf180mcu_fd_sc_mcu7t5v0__fill_2
X_2106_ _0464_ _0465_ _0466_ vdd vss gf180mcu_fd_sc_mcu7t5v0__nand2_1
X_3086_ la_data_out[57] vdd vss gf180mcu_fd_sc_mcu7t5v0__tiel
XFILLER_36_940 vdd vss gf180mcu_fd_sc_mcu7t5v0__fill_2
XFILLER_78_1150 vdd vss gf180mcu_fd_sc_mcu7t5v0__fill_1
X_2037_ _0424_ _0075_ vdd vss gf180mcu_fd_sc_mcu7t5v0__inv_1
XFILLER_39_1112 vdd vss gf180mcu_fd_sc_mcu7t5v0__fill_1
XFILLER_39_1101 vdd vss gf180mcu_fd_sc_mcu7t5v0__fill_2
XFILLER_78_1194 vdd vss gf180mcu_fd_sc_mcu7t5v0__fillcap_16
XFILLER_36_984 vdd vss gf180mcu_fd_sc_mcu7t5v0__fill_2
X_2939_ _2939_/ZN vdd vss gf180mcu_fd_sc_mcu7t5v0__tiel
XFILLER_85_1110 vdd vss gf180mcu_fd_sc_mcu7t5v0__fill_2
XFILLER_11_1064 vdd vss gf180mcu_fd_sc_mcu7t5v0__fill_1
XFILLER_137_1200 vdd vss gf180mcu_fd_sc_mcu7t5v0__fill_2
XFILLER_2_527 vdd vss gf180mcu_fd_sc_mcu7t5v0__fillcap_4
XFILLER_81_1018 vdd vss gf180mcu_fd_sc_mcu7t5v0__fill_1
XFILLER_117_66 vdd vss gf180mcu_fd_sc_mcu7t5v0__fillcap_4
XFILLER_120_937 vdd vss gf180mcu_fd_sc_mcu7t5v0__fillcap_64
XFILLER_86_851 vdd vss gf180mcu_fd_sc_mcu7t5v0__fill_2
XFILLER_86_873 vdd vss gf180mcu_fd_sc_mcu7t5v0__fill_2
XFILLER_2_1221 vdd vss gf180mcu_fd_sc_mcu7t5v0__fill_2
XFILLER_22_1160 vdd vss gf180mcu_fd_sc_mcu7t5v0__fill_2
XTAP_1800 vdd vss gf180mcu_fd_sc_mcu7t5v0__filltie
XFILLER_27_973 vdd vss gf180mcu_fd_sc_mcu7t5v0__fillcap_4
XTAP_1811 vdd vss gf180mcu_fd_sc_mcu7t5v0__filltie
XFILLER_54_792 vdd vss gf180mcu_fd_sc_mcu7t5v0__fill_1
XFILLER_42_932 vdd vss gf180mcu_fd_sc_mcu7t5v0__fill_2
XFILLER_42_921 vdd vss gf180mcu_fd_sc_mcu7t5v0__fill_2
XTAP_1833 vdd vss gf180mcu_fd_sc_mcu7t5v0__filltie
XTAP_1822 vdd vss gf180mcu_fd_sc_mcu7t5v0__filltie
XFILLER_27_995 vdd vss gf180mcu_fd_sc_mcu7t5v0__fill_2
XFILLER_18_1218 vdd vss gf180mcu_fd_sc_mcu7t5v0__fill_1
XTAP_1866 vdd vss gf180mcu_fd_sc_mcu7t5v0__filltie
XTAP_1844 vdd vss gf180mcu_fd_sc_mcu7t5v0__filltie
XFILLER_92_1147 vdd vss gf180mcu_fd_sc_mcu7t5v0__fill_1
XTAP_1855 vdd vss gf180mcu_fd_sc_mcu7t5v0__filltie
XANTENNA__1445__A1 _0887_ vdd vss gf180mcu_fd_sc_mcu7t5v0__antenna
XTAP_1899 vdd vss gf180mcu_fd_sc_mcu7t5v0__filltie
XTAP_1877 vdd vss gf180mcu_fd_sc_mcu7t5v0__filltie
XFILLER_42_998 vdd vss gf180mcu_fd_sc_mcu7t5v0__fill_2
XTAP_1888 vdd vss gf180mcu_fd_sc_mcu7t5v0__filltie
XANTENNA__1996__A2 _0365_ vdd vss gf180mcu_fd_sc_mcu7t5v0__antenna
XFILLER_9_137 vdd vss gf180mcu_fd_sc_mcu7t5v0__fillcap_4
XFILLER_6_811 vdd vss gf180mcu_fd_sc_mcu7t5v0__fillcap_4
XFILLER_10_851 vdd vss gf180mcu_fd_sc_mcu7t5v0__fill_2
XFILLER_10_884 vdd vss gf180mcu_fd_sc_mcu7t5v0__fill_2
XANTENNA_mod.u_scanchain_local.scan_flop\[3\]_SE io_in[11] vdd vss gf180mcu_fd_sc_mcu7t5v0__antenna
XFILLER_5_354 vdd vss gf180mcu_fd_sc_mcu7t5v0__fill_1
XANTENNA__2173__A2 mod.u_cpu.cpu.csr_d_sel vdd vss gf180mcu_fd_sc_mcu7t5v0__antenna
XANTENNA__1920__A2 mod.u_cpu.cpu.genblk1.align.ibus_rdt_concat\[12\] vdd vss gf180mcu_fd_sc_mcu7t5v0__antenna
XFILLER_1_560 vdd vss gf180mcu_fd_sc_mcu7t5v0__fill_2
XFILLER_77_840 vdd vss gf180mcu_fd_sc_mcu7t5v0__fillcap_4
XFILLER_67_70 vdd vss gf180mcu_fd_sc_mcu7t5v0__fill_1
XFILLER_97_1014 vdd vss gf180mcu_fd_sc_mcu7t5v0__fill_1
XANTENNA__1684__A1 _1053_ vdd vss gf180mcu_fd_sc_mcu7t5v0__antenna
XFILLER_33_921 vdd vss gf180mcu_fd_sc_mcu7t5v0__fill_1
XANTENNA__1389__I _0873_ vdd vss gf180mcu_fd_sc_mcu7t5v0__antenna
XANTENNA__1987__A2 _0355_ vdd vss gf180mcu_fd_sc_mcu7t5v0__antenna
XFILLER_60_795 vdd vss gf180mcu_fd_sc_mcu7t5v0__fill_1
XFILLER_80_2 vdd vss gf180mcu_fd_sc_mcu7t5v0__fillcap_32
XFILLER_34_1064 vdd vss gf180mcu_fd_sc_mcu7t5v0__fill_2
X_2724_ _0133_ io_in[12] mod.u_arbiter.i_wb_cpu_dbus_adr\[31\] vdd vss gf180mcu_fd_sc_mcu7t5v0__dffq_1
XFILLER_34_1086 vdd vss gf180mcu_fd_sc_mcu7t5v0__fill_2
X_2655_ _0068_ io_in[12] mod.u_cpu.cpu.immdec.imm11_7\[3\] vdd vss gf180mcu_fd_sc_mcu7t5v0__dffq_1
X_1606_ _1043_ _1048_ mod.u_arbiter.o_wb_cpu_adr\[2\] vdd vss gf180mcu_fd_sc_mcu7t5v0__nand2_1
XANTENNA__2013__I _0407_ vdd vss gf180mcu_fd_sc_mcu7t5v0__antenna
X_2586_ _0012_ io_in[12] mod.u_cpu.rf_ram_if.rdata1\[5\] vdd vss gf180mcu_fd_sc_mcu7t5v0__dffq_1
XFILLER_102_937 vdd vss gf180mcu_fd_sc_mcu7t5v0__fill_1
XFILLER_102_915 vdd vss gf180mcu_fd_sc_mcu7t5v0__fillcap_4
X_1537_ mod.u_cpu.cpu.decode.op21 _0829_ _0988_ vdd vss gf180mcu_fd_sc_mcu7t5v0__nand2_1
XANTENNA__1372__B1 _0849_ vdd vss gf180mcu_fd_sc_mcu7t5v0__antenna
X_1468_ _0922_ mod.u_cpu.rf_ram.i_wdata\[3\] vdd vss gf180mcu_fd_sc_mcu7t5v0__buf_1
XFILLER_80_1062 vdd vss gf180mcu_fd_sc_mcu7t5v0__fillcap_8
XFILLER_68_862 vdd vss gf180mcu_fd_sc_mcu7t5v0__fill_2
X_1399_ _0857_ _0868_ _0881_ mod.u_cpu.rf_ram.addr\[3\] vdd vss gf180mcu_fd_sc_mcu7t5v0__oai21_1
XTAP_1129 vdd vss gf180mcu_fd_sc_mcu7t5v0__filltie
XTAP_1118 vdd vss gf180mcu_fd_sc_mcu7t5v0__filltie
XTAP_1107 vdd vss gf180mcu_fd_sc_mcu7t5v0__filltie
X_3069_ la_data_out[40] vdd vss gf180mcu_fd_sc_mcu7t5v0__tiel
XFILLER_24_921 vdd vss gf180mcu_fd_sc_mcu7t5v0__fill_2
XFILLER_36_792 vdd vss gf180mcu_fd_sc_mcu7t5v0__fill_1
XFILLER_51_773 vdd vss gf180mcu_fd_sc_mcu7t5v0__fill_2
XANTENNA__1978__A2 _0346_ vdd vss gf180mcu_fd_sc_mcu7t5v0__antenna
XFILLER_52_1120 vdd vss gf180mcu_fd_sc_mcu7t5v0__fillcap_4
XFILLER_104_1221 vdd vss gf180mcu_fd_sc_mcu7t5v0__fill_2
XFILLER_13_1115 vdd vss gf180mcu_fd_sc_mcu7t5v0__fillcap_64
XANTENNA_mod.u_cpu.rf_ram.RAM0_GWEN _0026_ vdd vss gf180mcu_fd_sc_mcu7t5v0__antenna
XANTENNA_mod.u_scanchain_local.scan_flop\[15\]_SE io_in[11] vdd vss gf180mcu_fd_sc_mcu7t5v0__antenna
XFILLER_3_847 vdd vss gf180mcu_fd_sc_mcu7t5v0__fillcap_4
XANTENNA__1363__B1 _0849_ vdd vss gf180mcu_fd_sc_mcu7t5v0__antenna
XFILLER_59_840 vdd vss gf180mcu_fd_sc_mcu7t5v0__fill_2
XFILLER_101_970 vdd vss gf180mcu_fd_sc_mcu7t5v0__fill_1
XANTENNA__1666__A1 _1042_ vdd vss gf180mcu_fd_sc_mcu7t5v0__antenna
XANTENNA__2672__CLK io_in[12] vdd vss gf180mcu_fd_sc_mcu7t5v0__antenna
XFILLER_74_854 vdd vss gf180mcu_fd_sc_mcu7t5v0__fill_1
XFILLER_37_73 vdd vss gf180mcu_fd_sc_mcu7t5v0__fillcap_32
XANTENNA_mod.u_scanchain_local.scan_flop\[22\]_SI mod.u_arbiter.i_wb_cpu_dbus_dat\[16\]
+ vdd vss gf180mcu_fd_sc_mcu7t5v0__antenna
XTAP_1641 vdd vss gf180mcu_fd_sc_mcu7t5v0__filltie
XTAP_1630 vdd vss gf180mcu_fd_sc_mcu7t5v0__filltie
XFILLER_2_1095 vdd vss gf180mcu_fd_sc_mcu7t5v0__fillcap_4
XFILLER_15_954 vdd vss gf180mcu_fd_sc_mcu7t5v0__fillcap_16
XTAP_1674 vdd vss gf180mcu_fd_sc_mcu7t5v0__filltie
XTAP_1685 vdd vss gf180mcu_fd_sc_mcu7t5v0__filltie
XTAP_1663 vdd vss gf180mcu_fd_sc_mcu7t5v0__filltie
XTAP_1652 vdd vss gf180mcu_fd_sc_mcu7t5v0__filltie
XFILLER_57_1086 vdd vss gf180mcu_fd_sc_mcu7t5v0__fill_2
XANTENNA__1969__A2 _0349_ vdd vss gf180mcu_fd_sc_mcu7t5v0__antenna
XFILLER_30_913 vdd vss gf180mcu_fd_sc_mcu7t5v0__fill_2
XTAP_1696 vdd vss gf180mcu_fd_sc_mcu7t5v0__filltie
XFILLER_42_795 vdd vss gf180mcu_fd_sc_mcu7t5v0__fill_2
XFILLER_42_784 vdd vss gf180mcu_fd_sc_mcu7t5v0__fill_2
XFILLER_30_968 vdd vss gf180mcu_fd_sc_mcu7t5v0__fill_2
XANTENNA__1873__S _0288_ vdd vss gf180mcu_fd_sc_mcu7t5v0__antenna
XFILLER_10_692 vdd vss gf180mcu_fd_sc_mcu7t5v0__fill_2
XFILLER_143_859 vdd vss gf180mcu_fd_sc_mcu7t5v0__fillcap_16
X_2440_ _0241_ _0384_ _0534_ _0736_ vdd vss gf180mcu_fd_sc_mcu7t5v0__nor3_1
XFILLER_97_902 vdd vss gf180mcu_fd_sc_mcu7t5v0__fill_1
XFILLER_29_1122 vdd vss gf180mcu_fd_sc_mcu7t5v0__fill_2
X_2371_ _0521_ _0680_ _0681_ _1156_ _0682_ vdd vss gf180mcu_fd_sc_mcu7t5v0__oai211_1
XFILLER_29_1144 vdd vss gf180mcu_fd_sc_mcu7t5v0__fill_2
XFILLER_116_1147 vdd vss gf180mcu_fd_sc_mcu7t5v0__fill_1
XFILLER_64_1079 vdd vss gf180mcu_fd_sc_mcu7t5v0__fill_1
XFILLER_65_876 vdd vss gf180mcu_fd_sc_mcu7t5v0__fill_2
XFILLER_40_1090 vdd vss gf180mcu_fd_sc_mcu7t5v0__fill_2
XFILLER_80_857 vdd vss gf180mcu_fd_sc_mcu7t5v0__fill_2
XFILLER_75_1131 vdd vss gf180mcu_fd_sc_mcu7t5v0__fill_2
XFILLER_21_902 vdd vss gf180mcu_fd_sc_mcu7t5v0__fill_1
XFILLER_36_1104 vdd vss gf180mcu_fd_sc_mcu7t5v0__fill_2
XFILLER_36_1115 vdd vss gf180mcu_fd_sc_mcu7t5v0__fill_1
XFILLER_75_1186 vdd vss gf180mcu_fd_sc_mcu7t5v0__fill_1
XANTENNA_mod.u_scanchain_local.scan_flop\[38\]_SE io_in[11] vdd vss gf180mcu_fd_sc_mcu7t5v0__antenna
XFILLER_71_1039 vdd vss gf180mcu_fd_sc_mcu7t5v0__fill_2
XANTENNA__2452__B _0928_ vdd vss gf180mcu_fd_sc_mcu7t5v0__antenna
XFILLER_134_815 vdd vss gf180mcu_fd_sc_mcu7t5v0__fill_1
X_2707_ _0116_ io_in[12] mod.u_arbiter.i_wb_cpu_dbus_adr\[14\] vdd vss gf180mcu_fd_sc_mcu7t5v0__dffq_1
XANTENNA__2385__A2 _0626_ vdd vss gf180mcu_fd_sc_mcu7t5v0__antenna
X_2638_ _0051_ io_in[12] mod.u_cpu.cpu.genblk1.align.ibus_rdt_concat\[4\] vdd vss
+ gf180mcu_fd_sc_mcu7t5v0__dffq_1
XFILLER_47_1200 vdd vss gf180mcu_fd_sc_mcu7t5v0__fill_2
XFILLER_12_1192 vdd vss gf180mcu_fd_sc_mcu7t5v0__fillcap_32
X_2569_ _0928_ _0267_ _0820_ vdd vss gf180mcu_fd_sc_mcu7t5v0__nand2_1
XANTENNA__2695__CLK io_in[12] vdd vss gf180mcu_fd_sc_mcu7t5v0__antenna
XFILLER_43_1108 vdd vss gf180mcu_fd_sc_mcu7t5v0__fill_2
XFILLER_0_839 vdd vss gf180mcu_fd_sc_mcu7t5v0__fill_1
XANTENNA__1515__C _0827_ vdd vss gf180mcu_fd_sc_mcu7t5v0__antenna
XFILLER_114_34 vdd vss gf180mcu_fd_sc_mcu7t5v0__fill_1
XANTENNA__1648__A1 _1053_ vdd vss gf180mcu_fd_sc_mcu7t5v0__antenna
XFILLER_56_876 vdd vss gf180mcu_fd_sc_mcu7t5v0__fill_1
XANTENNA__2119__S _1164_ vdd vss gf180mcu_fd_sc_mcu7t5v0__antenna
XFILLER_71_824 vdd vss gf180mcu_fd_sc_mcu7t5v0__fillcap_4
XANTENNA__2346__C _0376_ vdd vss gf180mcu_fd_sc_mcu7t5v0__antenna
XFILLER_54_1215 vdd vss gf180mcu_fd_sc_mcu7t5v0__fillcap_4
XFILLER_90_37 vdd vss gf180mcu_fd_sc_mcu7t5v0__fillcap_64
XFILLER_11_423 vdd vss gf180mcu_fd_sc_mcu7t5v0__fill_2
XFILLER_24_795 vdd vss gf180mcu_fd_sc_mcu7t5v0__fill_1
XANTENNA__1757__I _0960_ vdd vss gf180mcu_fd_sc_mcu7t5v0__antenna
XFILLER_128_108 vdd vss gf180mcu_fd_sc_mcu7t5v0__fill_2
XFILLER_12_979 vdd vss gf180mcu_fd_sc_mcu7t5v0__fill_1
XANTENNA__1820__A1 _0241_ vdd vss gf180mcu_fd_sc_mcu7t5v0__antenna
XFILLER_11_489 vdd vss gf180mcu_fd_sc_mcu7t5v0__fillcap_8
XFILLER_128_2 vdd vss gf180mcu_fd_sc_mcu7t5v0__fillcap_32
XANTENNA__1423__I1 mod.u_cpu.rf_ram.data\[2\] vdd vss gf180mcu_fd_sc_mcu7t5v0__antenna
XANTENNA__2376__A2 _0685_ vdd vss gf180mcu_fd_sc_mcu7t5v0__antenna
XFILLER_48_1008 vdd vss gf180mcu_fd_sc_mcu7t5v0__fill_1
XFILLER_79_902 vdd vss gf180mcu_fd_sc_mcu7t5v0__fill_1
XFILLER_48_1019 vdd vss gf180mcu_fd_sc_mcu7t5v0__fillcap_4
XFILLER_140_818 vdd vss gf180mcu_fd_sc_mcu7t5v0__fillcap_64
XANTENNA__2533__C1 mod.u_arbiter.i_wb_cpu_dbus_dat\[27\] vdd vss gf180mcu_fd_sc_mcu7t5v0__antenna
XFILLER_2_176 vdd vss gf180mcu_fd_sc_mcu7t5v0__fill_1
XANTENNA__1351__A3 _0839_ vdd vss gf180mcu_fd_sc_mcu7t5v0__antenna
XFILLER_94_949 vdd vss gf180mcu_fd_sc_mcu7t5v0__fill_2
XFILLER_4_1102 vdd vss gf180mcu_fd_sc_mcu7t5v0__fillcap_64
XFILLER_24_1063 vdd vss gf180mcu_fd_sc_mcu7t5v0__fill_2
XFILLER_111_1044 vdd vss gf180mcu_fd_sc_mcu7t5v0__fillcap_64
XANTENNA__1639__A1 _1053_ vdd vss gf180mcu_fd_sc_mcu7t5v0__antenna
XFILLER_62_835 vdd vss gf180mcu_fd_sc_mcu7t5v0__fill_2
XFILLER_62_813 vdd vss gf180mcu_fd_sc_mcu7t5v0__fill_2
XFILLER_59_1115 vdd vss gf180mcu_fd_sc_mcu7t5v0__fill_1
XFILLER_47_898 vdd vss gf180mcu_fd_sc_mcu7t5v0__fill_2
XFILLER_47_876 vdd vss gf180mcu_fd_sc_mcu7t5v0__fill_2
XFILLER_62_857 vdd vss gf180mcu_fd_sc_mcu7t5v0__fill_2
XTAP_1460 vdd vss gf180mcu_fd_sc_mcu7t5v0__filltie
XTAP_1482 vdd vss gf180mcu_fd_sc_mcu7t5v0__filltie
XTAP_1493 vdd vss gf180mcu_fd_sc_mcu7t5v0__filltie
XTAP_1471 vdd vss gf180mcu_fd_sc_mcu7t5v0__filltie
X_1940_ _0323_ _0251_ _0339_ vdd vss gf180mcu_fd_sc_mcu7t5v0__nor2_1
XFILLER_9_66 vdd vss gf180mcu_fd_sc_mcu7t5v0__fillcap_4
X_1871_ _0285_ _0278_ _0287_ _1030_ _0046_ vdd vss gf180mcu_fd_sc_mcu7t5v0__aoi22_1
XFILLER_31_1023 vdd vss gf180mcu_fd_sc_mcu7t5v0__fill_2
XFILLER_35_1192 vdd vss gf180mcu_fd_sc_mcu7t5v0__fill_2
XFILLER_122_1195 vdd vss gf180mcu_fd_sc_mcu7t5v0__fill_2
XFILLER_6_460 vdd vss gf180mcu_fd_sc_mcu7t5v0__fill_1
XFILLER_31_1067 vdd vss gf180mcu_fd_sc_mcu7t5v0__fill_2
XFILLER_116_859 vdd vss gf180mcu_fd_sc_mcu7t5v0__fillcap_4
XFILLER_43_2 vdd vss gf180mcu_fd_sc_mcu7t5v0__fillcap_64
XFILLER_130_317 vdd vss gf180mcu_fd_sc_mcu7t5v0__fillcap_32
X_2423_ _0834_ _0390_ _0649_ _0158_ vdd vss gf180mcu_fd_sc_mcu7t5v0__oai21_1
X_2354_ _0371_ _0666_ _0667_ vdd vss gf180mcu_fd_sc_mcu7t5v0__nor2_1
XFILLER_42_1141 vdd vss gf180mcu_fd_sc_mcu7t5v0__fill_1
X_2285_ _0400_ _0337_ _0532_ _0603_ _0368_ _0604_ vdd vss gf180mcu_fd_sc_mcu7t5v0__aoi221_1
XFILLER_42_1196 vdd vss gf180mcu_fd_sc_mcu7t5v0__fill_2
XANTENNA__2447__B _0741_ vdd vss gf180mcu_fd_sc_mcu7t5v0__antenna
XFILLER_53_802 vdd vss gf180mcu_fd_sc_mcu7t5v0__fill_2
XFILLER_71_109 vdd vss gf180mcu_fd_sc_mcu7t5v0__fill_2
XFILLER_53_846 vdd vss gf180mcu_fd_sc_mcu7t5v0__fill_2
XFILLER_14_1221 vdd vss gf180mcu_fd_sc_mcu7t5v0__fill_2
XFILLER_133_144 vdd vss gf180mcu_fd_sc_mcu7t5v0__fillcap_64
XANTENNA__2515__C1 mod.u_arbiter.i_wb_cpu_dbus_dat\[18\] vdd vss gf180mcu_fd_sc_mcu7t5v0__antenna
XFILLER_47_1041 vdd vss gf180mcu_fd_sc_mcu7t5v0__fill_1
XFILLER_125_66 vdd vss gf180mcu_fd_sc_mcu7t5v0__fillcap_4
XFILLER_29_821 vdd vss gf180mcu_fd_sc_mcu7t5v0__fill_2
XFILLER_134_1099 vdd vss gf180mcu_fd_sc_mcu7t5v0__fill_1
XFILLER_29_865 vdd vss gf180mcu_fd_sc_mcu7t5v0__fill_1
XFILLER_84_982 vdd vss gf180mcu_fd_sc_mcu7t5v0__fillcap_4
XFILLER_29_898 vdd vss gf180mcu_fd_sc_mcu7t5v0__fill_2
XANTENNA__2294__A1 _0311_ vdd vss gf180mcu_fd_sc_mcu7t5v0__antenna
XFILLER_44_846 vdd vss gf180mcu_fd_sc_mcu7t5v0__fill_2
XFILLER_44_879 vdd vss gf180mcu_fd_sc_mcu7t5v0__fill_2
XPHY_510 vdd vss gf180mcu_fd_sc_mcu7t5v0__endcap
XPHY_521 vdd vss gf180mcu_fd_sc_mcu7t5v0__endcap
XANTENNA__2710__CLK io_in[12] vdd vss gf180mcu_fd_sc_mcu7t5v0__antenna
Xmod.u_scanchain_local.scan_flop\[49\] mod.u_scanchain_local.module_data_in\[48\]
+ io_in[11] mod.u_arbiter.o_wb_cpu_adr\[11\] clknet_3_7__leaf_mod.u_scanchain_local.clk
+ mod.u_scanchain_local.module_data_in\[49\] vdd vss gf180mcu_fd_sc_mcu7t5v0__sdffq_1
XFILLER_54_1067 vdd vss gf180mcu_fd_sc_mcu7t5v0__fill_2
XFILLER_8_747 vdd vss gf180mcu_fd_sc_mcu7t5v0__fillcap_32
XFILLER_11_286 vdd vss gf180mcu_fd_sc_mcu7t5v0__fill_1
XFILLER_7_279 vdd vss gf180mcu_fd_sc_mcu7t5v0__fillcap_4
XFILLER_4_953 vdd vss gf180mcu_fd_sc_mcu7t5v0__fillcap_4
XFILLER_117_1220 vdd vss gf180mcu_fd_sc_mcu7t5v0__fillcap_4
XTAP_529 vdd vss gf180mcu_fd_sc_mcu7t5v0__filltie
XFILLER_3_496 vdd vss gf180mcu_fd_sc_mcu7t5v0__fill_1
XANTENNA__2521__A2 _0778_ vdd vss gf180mcu_fd_sc_mcu7t5v0__antenna
XFILLER_26_1125 vdd vss gf180mcu_fd_sc_mcu7t5v0__fill_2
XFILLER_26_1147 vdd vss gf180mcu_fd_sc_mcu7t5v0__fill_1
XFILLER_121_895 vdd vss gf180mcu_fd_sc_mcu7t5v0__fillcap_4
XFILLER_67_949 vdd vss gf180mcu_fd_sc_mcu7t5v0__fill_2
XFILLER_26_1169 vdd vss gf180mcu_fd_sc_mcu7t5v0__fill_2
X_2070_ mod.u_cpu.cpu.ctrl.o_ibus_adr\[21\] _0434_ _0436_ mod.u_cpu.cpu.ctrl.o_ibus_adr\[22\]
+ _0442_ vdd vss gf180mcu_fd_sc_mcu7t5v0__aoi22_1
XFILLER_75_960 vdd vss gf180mcu_fd_sc_mcu7t5v0__fillcap_4
XFILLER_75_70 vdd vss gf180mcu_fd_sc_mcu7t5v0__fill_1
XFILLER_53_109 vdd vss gf180mcu_fd_sc_mcu7t5v0__fill_2
XANTENNA__2285__A1 _0400_ vdd vss gf180mcu_fd_sc_mcu7t5v0__antenna
XFILLER_90_974 vdd vss gf180mcu_fd_sc_mcu7t5v0__fillcap_4
XFILLER_90_985 vdd vss gf180mcu_fd_sc_mcu7t5v0__fill_2
XFILLER_37_1221 vdd vss gf180mcu_fd_sc_mcu7t5v0__fill_2
XFILLER_50_849 vdd vss gf180mcu_fd_sc_mcu7t5v0__fillcap_4
X_2972_ io_oeb[17] vdd vss gf180mcu_fd_sc_mcu7t5v0__tiel
XTAP_1290 vdd vss gf180mcu_fd_sc_mcu7t5v0__filltie
XFILLER_72_1145 vdd vss gf180mcu_fd_sc_mcu7t5v0__fill_2
X_1923_ _0310_ _0321_ _0311_ _0322_ vdd vss gf180mcu_fd_sc_mcu7t5v0__oai21_1
XFILLER_72_1189 vdd vss gf180mcu_fd_sc_mcu7t5v0__fill_2
XFILLER_129_973 vdd vss gf180mcu_fd_sc_mcu7t5v0__fillcap_64
X_1854_ _0272_ mod.u_cpu.cpu.genblk3.csr.mcause31 _0274_ _0275_ vdd vss gf180mcu_fd_sc_mcu7t5v0__mux2_2
X_1785_ mod.u_cpu.rf_ram_if.rcnt\[0\] _0221_ vdd vss gf180mcu_fd_sc_mcu7t5v0__clkinv_1
XFILLER_7_780 vdd vss gf180mcu_fd_sc_mcu7t5v0__fill_1
X_2406_ _0256_ _0712_ _0713_ vdd vss gf180mcu_fd_sc_mcu7t5v0__nor2_1
XFILLER_44_1214 vdd vss gf180mcu_fd_sc_mcu7t5v0__fill_2
XFILLER_131_1206 vdd vss gf180mcu_fd_sc_mcu7t5v0__fill_1
XFILLER_58_927 vdd vss gf180mcu_fd_sc_mcu7t5v0__fill_1
X_2337_ mod.u_cpu.cpu.immdec.imm30_25\[3\] _0390_ _0635_ _0651_ vdd vss gf180mcu_fd_sc_mcu7t5v0__oai21_1
XFILLER_73_919 vdd vss gf180mcu_fd_sc_mcu7t5v0__fillcap_4
X_2268_ _0584_ _0587_ _0588_ _0568_ _0408_ _0589_ vdd vss gf180mcu_fd_sc_mcu7t5v0__aoi221_1
XANTENNA__2276__A1 _0357_ vdd vss gf180mcu_fd_sc_mcu7t5v0__antenna
XFILLER_81_930 vdd vss gf180mcu_fd_sc_mcu7t5v0__fill_2