* NGSPICE file created from tiny_user_project.ext - technology: gf180mcuC

* Black-box entry subcircuit for gf180mcu_fd_sc_mcu7t5v0__fill_1 abstract view
.subckt gf180mcu_fd_sc_mcu7t5v0__fill_1 VDD VSS
.ends

* Black-box entry subcircuit for gf180mcu_fd_sc_mcu7t5v0__antenna abstract view
.subckt gf180mcu_fd_sc_mcu7t5v0__antenna I VDD VSS
.ends

* Black-box entry subcircuit for gf180mcu_fd_sc_mcu7t5v0__dffq_1 abstract view
.subckt gf180mcu_fd_sc_mcu7t5v0__dffq_1 D CLK Q VDD VSS
.ends

* Black-box entry subcircuit for gf180mcu_fd_sc_mcu7t5v0__fillcap_64 abstract view
.subckt gf180mcu_fd_sc_mcu7t5v0__fillcap_64 VDD VSS
.ends

* Black-box entry subcircuit for gf180mcu_fd_sc_mcu7t5v0__fillcap_4 abstract view
.subckt gf180mcu_fd_sc_mcu7t5v0__fillcap_4 VDD VSS
.ends

* Black-box entry subcircuit for gf180mcu_fd_sc_mcu7t5v0__fillcap_16 abstract view
.subckt gf180mcu_fd_sc_mcu7t5v0__fillcap_16 VDD VSS
.ends

* Black-box entry subcircuit for gf180mcu_fd_sc_mcu7t5v0__fill_2 abstract view
.subckt gf180mcu_fd_sc_mcu7t5v0__fill_2 VDD VSS
.ends

* Black-box entry subcircuit for gf180mcu_fd_sc_mcu7t5v0__filltie abstract view
.subckt gf180mcu_fd_sc_mcu7t5v0__filltie VDD VSS
.ends

* Black-box entry subcircuit for gf180mcu_fd_sc_mcu7t5v0__buf_2 abstract view
.subckt gf180mcu_fd_sc_mcu7t5v0__buf_2 I Z VDD VSS
.ends

* Black-box entry subcircuit for gf180mcu_fd_sc_mcu7t5v0__fillcap_32 abstract view
.subckt gf180mcu_fd_sc_mcu7t5v0__fillcap_32 VDD VSS
.ends

* Black-box entry subcircuit for gf180mcu_fd_sc_mcu7t5v0__fillcap_8 abstract view
.subckt gf180mcu_fd_sc_mcu7t5v0__fillcap_8 VDD VSS
.ends

* Black-box entry subcircuit for gf180mcu_fd_sc_mcu7t5v0__aoi22_1 abstract view
.subckt gf180mcu_fd_sc_mcu7t5v0__aoi22_1 A1 A2 B1 B2 ZN VDD VSS
.ends

* Black-box entry subcircuit for gf180mcu_fd_sc_mcu7t5v0__and2_1 abstract view
.subckt gf180mcu_fd_sc_mcu7t5v0__and2_1 A1 A2 Z VDD VSS
.ends

* Black-box entry subcircuit for gf180mcu_fd_sc_mcu7t5v0__nand2_1 abstract view
.subckt gf180mcu_fd_sc_mcu7t5v0__nand2_1 A1 A2 ZN VDD VSS
.ends

* Black-box entry subcircuit for gf180mcu_fd_sc_mcu7t5v0__aoi21_1 abstract view
.subckt gf180mcu_fd_sc_mcu7t5v0__aoi21_1 A1 A2 B ZN VDD VSS
.ends

* Black-box entry subcircuit for gf180mcu_fd_sc_mcu7t5v0__clkbuf_1 abstract view
.subckt gf180mcu_fd_sc_mcu7t5v0__clkbuf_1 I Z VDD VSS
.ends

* Black-box entry subcircuit for gf180mcu_fd_sc_mcu7t5v0__clkinv_1 abstract view
.subckt gf180mcu_fd_sc_mcu7t5v0__clkinv_1 I ZN VDD VSS
.ends

* Black-box entry subcircuit for gf180mcu_fd_sc_mcu7t5v0__nor3_1 abstract view
.subckt gf180mcu_fd_sc_mcu7t5v0__nor3_1 A1 A2 A3 ZN VDD VSS
.ends

* Black-box entry subcircuit for gf180mcu_fd_sc_mcu7t5v0__nor2_1 abstract view
.subckt gf180mcu_fd_sc_mcu7t5v0__nor2_1 A1 A2 ZN VDD VSS
.ends

* Black-box entry subcircuit for gf180mcu_fd_sc_mcu7t5v0__clkbuf_4 abstract view
.subckt gf180mcu_fd_sc_mcu7t5v0__clkbuf_4 I Z VDD VSS
.ends

* Black-box entry subcircuit for gf180mcu_fd_sc_mcu7t5v0__endcap abstract view
.subckt gf180mcu_fd_sc_mcu7t5v0__endcap VDD VSS
.ends

* Black-box entry subcircuit for gf180mcu_fd_sc_mcu7t5v0__aoi222_1 abstract view
.subckt gf180mcu_fd_sc_mcu7t5v0__aoi222_1 A1 A2 B1 B2 C1 C2 ZN VDD VSS
.ends

* Black-box entry subcircuit for gf180mcu_fd_sc_mcu7t5v0__xnor2_1 abstract view
.subckt gf180mcu_fd_sc_mcu7t5v0__xnor2_1 A1 A2 ZN VDD VSS
.ends

* Black-box entry subcircuit for gf180mcu_fd_sc_mcu7t5v0__mux2_2 abstract view
.subckt gf180mcu_fd_sc_mcu7t5v0__mux2_2 I0 I1 S Z VDD VSS
.ends

* Black-box entry subcircuit for gf180mcu_fd_sc_mcu7t5v0__buf_1 abstract view
.subckt gf180mcu_fd_sc_mcu7t5v0__buf_1 I Z VDD VSS
.ends

* Black-box entry subcircuit for gf180mcu_fd_sc_mcu7t5v0__oai21_1 abstract view
.subckt gf180mcu_fd_sc_mcu7t5v0__oai21_1 A1 A2 B ZN VDD VSS
.ends

* Black-box entry subcircuit for gf180mcu_fd_sc_mcu7t5v0__aoi221_1 abstract view
.subckt gf180mcu_fd_sc_mcu7t5v0__aoi221_1 A1 A2 B1 B2 C ZN VDD VSS
.ends

* Black-box entry subcircuit for gf180mcu_fd_sc_mcu7t5v0__nand3_1 abstract view
.subckt gf180mcu_fd_sc_mcu7t5v0__nand3_1 A1 A2 A3 ZN VDD VSS
.ends

* Black-box entry subcircuit for gf180mcu_fd_sc_mcu7t5v0__nor3_2 abstract view
.subckt gf180mcu_fd_sc_mcu7t5v0__nor3_2 A1 A2 A3 ZN VDD VSS
.ends

* Black-box entry subcircuit for gf180mcu_fd_sc_mcu7t5v0__xor2_1 abstract view
.subckt gf180mcu_fd_sc_mcu7t5v0__xor2_1 A1 A2 Z VDD VSS
.ends

* Black-box entry subcircuit for gf180mcu_fd_sc_mcu7t5v0__nand4_1 abstract view
.subckt gf180mcu_fd_sc_mcu7t5v0__nand4_1 A1 A2 A3 A4 ZN VDD VSS
.ends

* Black-box entry subcircuit for gf180mcu_fd_sc_mcu7t5v0__oai211_1 abstract view
.subckt gf180mcu_fd_sc_mcu7t5v0__oai211_1 A1 A2 B C ZN VDD VSS
.ends

* Black-box entry subcircuit for gf180mcu_fd_sc_mcu7t5v0__or2_1 abstract view
.subckt gf180mcu_fd_sc_mcu7t5v0__or2_1 A1 A2 Z VDD VSS
.ends

* Black-box entry subcircuit for gf180mcu_fd_sc_mcu7t5v0__oai22_1 abstract view
.subckt gf180mcu_fd_sc_mcu7t5v0__oai22_1 A1 A2 B1 B2 ZN VDD VSS
.ends

* Black-box entry subcircuit for gf180mcu_fd_sc_mcu7t5v0__or3_1 abstract view
.subckt gf180mcu_fd_sc_mcu7t5v0__or3_1 A1 A2 A3 Z VDD VSS
.ends

* Black-box entry subcircuit for gf180mcu_fd_sc_mcu7t5v0__aoi21_2 abstract view
.subckt gf180mcu_fd_sc_mcu7t5v0__aoi21_2 A1 A2 B ZN VDD VSS
.ends

* Black-box entry subcircuit for gf180mcu_fd_sc_mcu7t5v0__aoi211_1 abstract view
.subckt gf180mcu_fd_sc_mcu7t5v0__aoi211_1 A1 A2 B C ZN VDD VSS
.ends

* Black-box entry subcircuit for gf180mcu_fd_sc_mcu7t5v0__oai31_1 abstract view
.subckt gf180mcu_fd_sc_mcu7t5v0__oai31_1 A1 A2 A3 B ZN VDD VSS
.ends

* Black-box entry subcircuit for gf180mcu_fd_sc_mcu7t5v0__oai32_2 abstract view
.subckt gf180mcu_fd_sc_mcu7t5v0__oai32_2 A1 A2 A3 B1 B2 ZN VDD VSS
.ends

* Black-box entry subcircuit for gf180mcu_fd_sc_mcu7t5v0__aoi22_2 abstract view
.subckt gf180mcu_fd_sc_mcu7t5v0__aoi22_2 A1 A2 B1 B2 ZN VDD VSS
.ends

* Black-box entry subcircuit for gf180mcu_fd_sc_mcu7t5v0__tiel abstract view
.subckt gf180mcu_fd_sc_mcu7t5v0__tiel ZN VDD VSS
.ends

* Black-box entry subcircuit for gf180mcu_fd_sc_mcu7t5v0__nand2_2 abstract view
.subckt gf180mcu_fd_sc_mcu7t5v0__nand2_2 A1 A2 ZN VDD VSS
.ends

* Black-box entry subcircuit for gf180mcu_fd_sc_mcu7t5v0__buf_20 abstract view
.subckt gf180mcu_fd_sc_mcu7t5v0__buf_20 I Z VDD VSS
.ends

* Black-box entry subcircuit for gf180mcu_fd_sc_mcu7t5v0__clkbuf_20 abstract view
.subckt gf180mcu_fd_sc_mcu7t5v0__clkbuf_20 I Z VDD VSS
.ends

* Black-box entry subcircuit for gf180mcu_fd_sc_mcu7t5v0__aoi211_2 abstract view
.subckt gf180mcu_fd_sc_mcu7t5v0__aoi211_2 A1 A2 B C ZN VDD VSS
.ends

* Black-box entry subcircuit for gf180mcu_fd_sc_mcu7t5v0__or4_1 abstract view
.subckt gf180mcu_fd_sc_mcu7t5v0__or4_1 A1 A2 A3 A4 Z VDD VSS
.ends

* Black-box entry subcircuit for gf180mcu_fd_sc_mcu7t5v0__and4_1 abstract view
.subckt gf180mcu_fd_sc_mcu7t5v0__and4_1 A1 A2 A3 A4 Z VDD VSS
.ends

* Black-box entry subcircuit for gf180mcu_fd_sc_mcu7t5v0__mux4_1 abstract view
.subckt gf180mcu_fd_sc_mcu7t5v0__mux4_1 I0 I1 I2 I3 S0 S1 Z VDD VSS
.ends

* Black-box entry subcircuit for gf180mcu_fd_sc_mcu7t5v0__clkbuf_2 abstract view
.subckt gf180mcu_fd_sc_mcu7t5v0__clkbuf_2 I Z VDD VSS
.ends

* Black-box entry subcircuit for gf180mcu_fd_sc_mcu7t5v0__dffnq_1 abstract view
.subckt gf180mcu_fd_sc_mcu7t5v0__dffnq_1 D CLKN Q VDD VSS
.ends

* Black-box entry subcircuit for gf180mcu_fd_sc_mcu7t5v0__and3_1 abstract view
.subckt gf180mcu_fd_sc_mcu7t5v0__and3_1 A1 A2 A3 Z VDD VSS
.ends

.subckt tiny_user_project io_in[0] io_in[10] io_in[11] io_in[12] io_in[13] io_in[14]
+ io_in[15] io_in[16] io_in[17] io_in[18] io_in[19] io_in[1] io_in[20] io_in[21] io_in[22]
+ io_in[23] io_in[24] io_in[25] io_in[26] io_in[27] io_in[28] io_in[29] io_in[2] io_in[30]
+ io_in[31] io_in[32] io_in[33] io_in[34] io_in[35] io_in[36] io_in[37] io_in[3] io_in[4]
+ io_in[5] io_in[6] io_in[7] io_in[8] io_in[9] io_oeb[0] io_oeb[10] io_oeb[11] io_oeb[12]
+ io_oeb[13] io_oeb[14] io_oeb[15] io_oeb[16] io_oeb[17] io_oeb[18] io_oeb[19] io_oeb[1]
+ io_oeb[20] io_oeb[21] io_oeb[22] io_oeb[23] io_oeb[24] io_oeb[25] io_oeb[26] io_oeb[27]
+ io_oeb[28] io_oeb[29] io_oeb[2] io_oeb[30] io_oeb[31] io_oeb[32] io_oeb[33] io_oeb[34]
+ io_oeb[35] io_oeb[36] io_oeb[37] io_oeb[3] io_oeb[4] io_oeb[5] io_oeb[6] io_oeb[7]
+ io_oeb[8] io_oeb[9] io_out[0] io_out[10] io_out[11] io_out[12] io_out[13] io_out[14]
+ io_out[15] io_out[16] io_out[17] io_out[18] io_out[19] io_out[1] io_out[20] io_out[21]
+ io_out[22] io_out[23] io_out[24] io_out[25] io_out[26] io_out[27] io_out[28] io_out[29]
+ io_out[2] io_out[30] io_out[31] io_out[32] io_out[33] io_out[34] io_out[35] io_out[36]
+ io_out[37] io_out[3] io_out[4] io_out[5] io_out[6] io_out[7] io_out[8] io_out[9]
+ la_data_in[0] la_data_in[10] la_data_in[11] la_data_in[12] la_data_in[13] la_data_in[14]
+ la_data_in[15] la_data_in[16] la_data_in[17] la_data_in[18] la_data_in[19] la_data_in[1]
+ la_data_in[20] la_data_in[21] la_data_in[22] la_data_in[23] la_data_in[24] la_data_in[25]
+ la_data_in[26] la_data_in[27] la_data_in[28] la_data_in[29] la_data_in[2] la_data_in[30]
+ la_data_in[31] la_data_in[32] la_data_in[33] la_data_in[34] la_data_in[35] la_data_in[36]
+ la_data_in[37] la_data_in[38] la_data_in[39] la_data_in[3] la_data_in[40] la_data_in[41]
+ la_data_in[42] la_data_in[43] la_data_in[44] la_data_in[45] la_data_in[46] la_data_in[47]
+ la_data_in[48] la_data_in[49] la_data_in[4] la_data_in[50] la_data_in[51] la_data_in[52]
+ la_data_in[53] la_data_in[54] la_data_in[55] la_data_in[56] la_data_in[57] la_data_in[58]
+ la_data_in[59] la_data_in[5] la_data_in[60] la_data_in[61] la_data_in[62] la_data_in[63]
+ la_data_in[6] la_data_in[7] la_data_in[8] la_data_in[9] la_data_out[0] la_data_out[10]
+ la_data_out[11] la_data_out[12] la_data_out[13] la_data_out[14] la_data_out[15]
+ la_data_out[16] la_data_out[17] la_data_out[18] la_data_out[19] la_data_out[1] la_data_out[20]
+ la_data_out[21] la_data_out[22] la_data_out[23] la_data_out[24] la_data_out[25]
+ la_data_out[26] la_data_out[27] la_data_out[28] la_data_out[29] la_data_out[2] la_data_out[30]
+ la_data_out[31] la_data_out[32] la_data_out[33] la_data_out[34] la_data_out[35]
+ la_data_out[36] la_data_out[37] la_data_out[38] la_data_out[39] la_data_out[3] la_data_out[40]
+ la_data_out[41] la_data_out[42] la_data_out[43] la_data_out[44] la_data_out[45]
+ la_data_out[46] la_data_out[47] la_data_out[48] la_data_out[49] la_data_out[4] la_data_out[50]
+ la_data_out[51] la_data_out[52] la_data_out[53] la_data_out[54] la_data_out[55]
+ la_data_out[56] la_data_out[57] la_data_out[58] la_data_out[59] la_data_out[5] la_data_out[60]
+ la_data_out[61] la_data_out[62] la_data_out[63] la_data_out[6] la_data_out[7] la_data_out[8]
+ la_data_out[9] la_oenb[0] la_oenb[10] la_oenb[11] la_oenb[12] la_oenb[13] la_oenb[14]
+ la_oenb[15] la_oenb[16] la_oenb[17] la_oenb[18] la_oenb[19] la_oenb[1] la_oenb[20]
+ la_oenb[21] la_oenb[22] la_oenb[23] la_oenb[24] la_oenb[25] la_oenb[26] la_oenb[27]
+ la_oenb[28] la_oenb[29] la_oenb[2] la_oenb[30] la_oenb[31] la_oenb[32] la_oenb[33]
+ la_oenb[34] la_oenb[35] la_oenb[36] la_oenb[37] la_oenb[38] la_oenb[39] la_oenb[3]
+ la_oenb[40] la_oenb[41] la_oenb[42] la_oenb[43] la_oenb[44] la_oenb[45] la_oenb[46]
+ la_oenb[47] la_oenb[48] la_oenb[49] la_oenb[4] la_oenb[50] la_oenb[51] la_oenb[52]
+ la_oenb[53] la_oenb[54] la_oenb[55] la_oenb[56] la_oenb[57] la_oenb[58] la_oenb[59]
+ la_oenb[5] la_oenb[60] la_oenb[61] la_oenb[62] la_oenb[63] la_oenb[6] la_oenb[7]
+ la_oenb[8] la_oenb[9] user_clock2 user_irq[0] user_irq[1] user_irq[2] vdd vss wb_clk_i
+ wb_rst_i wbs_ack_o wbs_adr_i[0] wbs_adr_i[10] wbs_adr_i[11] wbs_adr_i[12] wbs_adr_i[13]
+ wbs_adr_i[14] wbs_adr_i[15] wbs_adr_i[16] wbs_adr_i[17] wbs_adr_i[18] wbs_adr_i[19]
+ wbs_adr_i[1] wbs_adr_i[20] wbs_adr_i[21] wbs_adr_i[22] wbs_adr_i[23] wbs_adr_i[24]
+ wbs_adr_i[25] wbs_adr_i[26] wbs_adr_i[27] wbs_adr_i[28] wbs_adr_i[29] wbs_adr_i[2]
+ wbs_adr_i[30] wbs_adr_i[31] wbs_adr_i[3] wbs_adr_i[4] wbs_adr_i[5] wbs_adr_i[6]
+ wbs_adr_i[7] wbs_adr_i[8] wbs_adr_i[9] wbs_cyc_i wbs_dat_i[0] wbs_dat_i[10] wbs_dat_i[11]
+ wbs_dat_i[12] wbs_dat_i[13] wbs_dat_i[14] wbs_dat_i[15] wbs_dat_i[16] wbs_dat_i[17]
+ wbs_dat_i[18] wbs_dat_i[19] wbs_dat_i[1] wbs_dat_i[20] wbs_dat_i[21] wbs_dat_i[22]
+ wbs_dat_i[23] wbs_dat_i[24] wbs_dat_i[25] wbs_dat_i[26] wbs_dat_i[27] wbs_dat_i[28]
+ wbs_dat_i[29] wbs_dat_i[2] wbs_dat_i[30] wbs_dat_i[31] wbs_dat_i[3] wbs_dat_i[4]
+ wbs_dat_i[5] wbs_dat_i[6] wbs_dat_i[7] wbs_dat_i[8] wbs_dat_i[9] wbs_dat_o[0] wbs_dat_o[10]
+ wbs_dat_o[11] wbs_dat_o[12] wbs_dat_o[13] wbs_dat_o[14] wbs_dat_o[15] wbs_dat_o[16]
+ wbs_dat_o[17] wbs_dat_o[18] wbs_dat_o[19] wbs_dat_o[1] wbs_dat_o[20] wbs_dat_o[21]
+ wbs_dat_o[22] wbs_dat_o[23] wbs_dat_o[24] wbs_dat_o[25] wbs_dat_o[26] wbs_dat_o[27]
+ wbs_dat_o[28] wbs_dat_o[29] wbs_dat_o[2] wbs_dat_o[30] wbs_dat_o[31] wbs_dat_o[3]
+ wbs_dat_o[4] wbs_dat_o[5] wbs_dat_o[6] wbs_dat_o[7] wbs_dat_o[8] wbs_dat_o[9] wbs_sel_i[0]
+ wbs_sel_i[1] wbs_sel_i[2] wbs_sel_i[3] wbs_stb_i wbs_we_i
XFILLER_95_851 vdd vss gf180mcu_fd_sc_mcu7t5v0__fill_1
XANTENNA__1343__B _0868_ vdd vss gf180mcu_fd_sc_mcu7t5v0__antenna
X_2106_ _0098_ net4 mod.cpu.bufreg2.i_dat\[12\] vdd vss gf180mcu_fd_sc_mcu7t5v0__dffq_1
XFILLER_82_534 vdd vss gf180mcu_fd_sc_mcu7t5v0__fillcap_64
XFILLER_27_428 vdd vss gf180mcu_fd_sc_mcu7t5v0__fillcap_64
X_2037_ _0022_ net4 mod.cpu.bufreg2.i_dat\[27\] vdd vss gf180mcu_fd_sc_mcu7t5v0__dffq_1
XFILLER_54_247 vdd vss gf180mcu_fd_sc_mcu7t5v0__fill_1
XFILLER_23_634 vdd vss gf180mcu_fd_sc_mcu7t5v0__fillcap_4
XFILLER_161_1028 vdd vss gf180mcu_fd_sc_mcu7t5v0__fillcap_16
XFILLER_148_385 vdd vss gf180mcu_fd_sc_mcu7t5v0__fillcap_4
XFILLER_123_208 vdd vss gf180mcu_fd_sc_mcu7t5v0__fillcap_4
XFILLER_117_783 vdd vss gf180mcu_fd_sc_mcu7t5v0__fillcap_64
XFILLER_89_100 vdd vss gf180mcu_fd_sc_mcu7t5v0__fill_2
XFILLER_2_527 vdd vss gf180mcu_fd_sc_mcu7t5v0__fillcap_4
XFILLER_105_989 vdd vss gf180mcu_fd_sc_mcu7t5v0__fillcap_4
XFILLER_104_455 vdd vss gf180mcu_fd_sc_mcu7t5v0__fillcap_4
XFILLER_89_144 vdd vss gf180mcu_fd_sc_mcu7t5v0__fillcap_4
XFILLER_78_818 vdd vss gf180mcu_fd_sc_mcu7t5v0__fillcap_64
XFILLER_58_531 vdd vss gf180mcu_fd_sc_mcu7t5v0__fill_1
XFILLER_19_918 vdd vss gf180mcu_fd_sc_mcu7t5v0__fillcap_4
XTAP_2501 vdd vss gf180mcu_fd_sc_mcu7t5v0__filltie
XTAP_2545 vdd vss gf180mcu_fd_sc_mcu7t5v0__filltie
XTAP_2534 vdd vss gf180mcu_fd_sc_mcu7t5v0__filltie
XTAP_2512 vdd vss gf180mcu_fd_sc_mcu7t5v0__filltie
XTAP_2523 vdd vss gf180mcu_fd_sc_mcu7t5v0__filltie
XTAP_1800 vdd vss gf180mcu_fd_sc_mcu7t5v0__filltie
XFILLER_73_567 vdd vss gf180mcu_fd_sc_mcu7t5v0__fill_1
XTAP_2578 vdd vss gf180mcu_fd_sc_mcu7t5v0__filltie
XTAP_2567 vdd vss gf180mcu_fd_sc_mcu7t5v0__filltie
XTAP_2556 vdd vss gf180mcu_fd_sc_mcu7t5v0__filltie
XTAP_1833 vdd vss gf180mcu_fd_sc_mcu7t5v0__filltie
XTAP_1822 vdd vss gf180mcu_fd_sc_mcu7t5v0__filltie
XTAP_1811 vdd vss gf180mcu_fd_sc_mcu7t5v0__filltie
XTAP_2589 vdd vss gf180mcu_fd_sc_mcu7t5v0__filltie
XTAP_1866 vdd vss gf180mcu_fd_sc_mcu7t5v0__filltie
XTAP_1855 vdd vss gf180mcu_fd_sc_mcu7t5v0__filltie
XTAP_1844 vdd vss gf180mcu_fd_sc_mcu7t5v0__filltie
XFILLER_53_280 vdd vss gf180mcu_fd_sc_mcu7t5v0__fill_1
XFILLER_53_291 vdd vss gf180mcu_fd_sc_mcu7t5v0__fill_2
XFILLER_158_105 vdd vss gf180mcu_fd_sc_mcu7t5v0__fill_1
XTAP_1899 vdd vss gf180mcu_fd_sc_mcu7t5v0__filltie
XTAP_1888 vdd vss gf180mcu_fd_sc_mcu7t5v0__filltie
XTAP_1877 vdd vss gf180mcu_fd_sc_mcu7t5v0__filltie
XFILLER_13_144 vdd vss gf180mcu_fd_sc_mcu7t5v0__fillcap_64
XFILLER_9_137 vdd vss gf180mcu_fd_sc_mcu7t5v0__fillcap_4
XFILLER_6_811 vdd vss gf180mcu_fd_sc_mcu7t5v0__fillcap_4
XFILLER_115_709 vdd vss gf180mcu_fd_sc_mcu7t5v0__fill_1
XFILLER_5_354 vdd vss gf180mcu_fd_sc_mcu7t5v0__fill_1
XFILLER_107_282 vdd vss gf180mcu_fd_sc_mcu7t5v0__fill_2
XFILLER_107_293 vdd vss gf180mcu_fd_sc_mcu7t5v0__fillcap_4
XFILLER_68_306 vdd vss gf180mcu_fd_sc_mcu7t5v0__fill_2
X_1270_ _0816_ _0828_ vdd vss gf180mcu_fd_sc_mcu7t5v0__buf_2
XFILLER_77_851 vdd vss gf180mcu_fd_sc_mcu7t5v0__fill_1
XFILLER_95_169 vdd vss gf180mcu_fd_sc_mcu7t5v0__fill_2
XFILLER_83_309 vdd vss gf180mcu_fd_sc_mcu7t5v0__fill_2
XFILLER_67_70 vdd vss gf180mcu_fd_sc_mcu7t5v0__fill_1
XANTENNA__1684__A1 _0639_ vdd vss gf180mcu_fd_sc_mcu7t5v0__antenna
XFILLER_97_1036 vdd vss gf180mcu_fd_sc_mcu7t5v0__fillcap_4
XFILLER_64_534 vdd vss gf180mcu_fd_sc_mcu7t5v0__fillcap_64
XFILLER_91_353 vdd vss gf180mcu_fd_sc_mcu7t5v0__fill_2
XFILLER_36_247 vdd vss gf180mcu_fd_sc_mcu7t5v0__fill_1
XFILLER_91_386 vdd vss gf180mcu_fd_sc_mcu7t5v0__fill_2
XFILLER_91_364 vdd vss gf180mcu_fd_sc_mcu7t5v0__fill_2
XANTENNA__1389__I _0794_ vdd vss gf180mcu_fd_sc_mcu7t5v0__antenna
XFILLER_60_740 vdd vss gf180mcu_fd_sc_mcu7t5v0__fillcap_4
XANTENNA__1987__A2 _0539_ vdd vss gf180mcu_fd_sc_mcu7t5v0__antenna
XANTENNA__1039__I1 mod.cpu.immdec.imm24_20\[1\] vdd vss gf180mcu_fd_sc_mcu7t5v0__antenna
XFILLER_80_2 vdd vss gf180mcu_fd_sc_mcu7t5v0__fillcap_32
XFILLER_34_1031 vdd vss gf180mcu_fd_sc_mcu7t5v0__fillcap_8
XFILLER_146_889 vdd vss gf180mcu_fd_sc_mcu7t5v0__fillcap_64
XANTENNA__1338__B _0868_ vdd vss gf180mcu_fd_sc_mcu7t5v0__antenna
XFILLER_160_314 vdd vss gf180mcu_fd_sc_mcu7t5v0__fillcap_4
X_1606_ mod.cpu.bufreg2.i_dat\[4\] _0323_ _0325_ _0819_ _0326_ vdd vss gf180mcu_fd_sc_mcu7t5v0__aoi22_1
XFILLER_86_103 vdd vss gf180mcu_fd_sc_mcu7t5v0__fill_2
X_1537_ _0269_ _0680_ _0270_ vdd vss gf180mcu_fd_sc_mcu7t5v0__and2_1
XFILLER_101_425 vdd vss gf180mcu_fd_sc_mcu7t5v0__fill_1
X_1468_ mod.cpu.ctrl.o_ibus_adr\[29\] _0972_ _0976_ vdd vss gf180mcu_fd_sc_mcu7t5v0__nand2_1
X_1399_ mod.cpu.bufreg.data\[15\] _0913_ _0917_ _0921_ vdd vss gf180mcu_fd_sc_mcu7t5v0__aoi21_1
XFILLER_83_854 vdd vss gf180mcu_fd_sc_mcu7t5v0__fillcap_64
XFILLER_55_567 vdd vss gf180mcu_fd_sc_mcu7t5v0__fill_1
XTAP_1118 vdd vss gf180mcu_fd_sc_mcu7t5v0__filltie
XTAP_1107 vdd vss gf180mcu_fd_sc_mcu7t5v0__filltie
XTAP_1129 vdd vss gf180mcu_fd_sc_mcu7t5v0__filltie
XFILLER_50_250 vdd vss gf180mcu_fd_sc_mcu7t5v0__fillcap_4
XFILLER_163_141 vdd vss gf180mcu_fd_sc_mcu7t5v0__fill_1
XFILLER_152_815 vdd vss gf180mcu_fd_sc_mcu7t5v0__fill_1
XFILLER_3_847 vdd vss gf180mcu_fd_sc_mcu7t5v0__fillcap_4
XFILLER_59_851 vdd vss gf180mcu_fd_sc_mcu7t5v0__fill_1
XFILLER_65_309 vdd vss gf180mcu_fd_sc_mcu7t5v0__fillcap_8
XFILLER_46_534 vdd vss gf180mcu_fd_sc_mcu7t5v0__fillcap_64
XTAP_2320 vdd vss gf180mcu_fd_sc_mcu7t5v0__filltie
XFILLER_73_342 vdd vss gf180mcu_fd_sc_mcu7t5v0__fill_2
XFILLER_18_247 vdd vss gf180mcu_fd_sc_mcu7t5v0__fill_1
XFILLER_37_73 vdd vss gf180mcu_fd_sc_mcu7t5v0__fillcap_64
XTAP_2353 vdd vss gf180mcu_fd_sc_mcu7t5v0__filltie
XTAP_2342 vdd vss gf180mcu_fd_sc_mcu7t5v0__filltie
XTAP_2331 vdd vss gf180mcu_fd_sc_mcu7t5v0__filltie
XTAP_2386 vdd vss gf180mcu_fd_sc_mcu7t5v0__filltie
XTAP_2375 vdd vss gf180mcu_fd_sc_mcu7t5v0__filltie
XTAP_2364 vdd vss gf180mcu_fd_sc_mcu7t5v0__filltie
XTAP_1641 vdd vss gf180mcu_fd_sc_mcu7t5v0__filltie
XTAP_1630 vdd vss gf180mcu_fd_sc_mcu7t5v0__filltie
XFILLER_42_740 vdd vss gf180mcu_fd_sc_mcu7t5v0__fillcap_4
XFILLER_159_425 vdd vss gf180mcu_fd_sc_mcu7t5v0__fill_1
XTAP_2397 vdd vss gf180mcu_fd_sc_mcu7t5v0__filltie
XTAP_1685 vdd vss gf180mcu_fd_sc_mcu7t5v0__filltie
XTAP_1674 vdd vss gf180mcu_fd_sc_mcu7t5v0__filltie
XTAP_1663 vdd vss gf180mcu_fd_sc_mcu7t5v0__filltie
XTAP_1652 vdd vss gf180mcu_fd_sc_mcu7t5v0__filltie
XTAP_1696 vdd vss gf180mcu_fd_sc_mcu7t5v0__filltie
XFILLER_30_957 vdd vss gf180mcu_fd_sc_mcu7t5v0__fill_1
XFILLER_41_283 vdd vss gf180mcu_fd_sc_mcu7t5v0__fill_1
XFILLER_146_108 vdd vss gf180mcu_fd_sc_mcu7t5v0__fillcap_64
XANTENNA__2052__CLK net4 vdd vss gf180mcu_fd_sc_mcu7t5v0__antenna
XFILLER_128_889 vdd vss gf180mcu_fd_sc_mcu7t5v0__fillcap_64
XANTENNA__1197__A3 _0772_ vdd vss gf180mcu_fd_sc_mcu7t5v0__antenna
XANTENNA__1873__S _0511_ vdd vss gf180mcu_fd_sc_mcu7t5v0__antenna
XFILLER_142_314 vdd vss gf180mcu_fd_sc_mcu7t5v0__fillcap_4
XFILLER_111_712 vdd vss gf180mcu_fd_sc_mcu7t5v0__fillcap_64
XFILLER_64_1024 vdd vss gf180mcu_fd_sc_mcu7t5v0__fillcap_4
XFILLER_110_222 vdd vss gf180mcu_fd_sc_mcu7t5v0__fill_1
X_1322_ mod.cpu.ctrl.o_ibus_adr\[0\] _0859_ vdd vss gf180mcu_fd_sc_mcu7t5v0__clkbuf_1
X_1253_ _0818_ _0025_ vdd vss gf180mcu_fd_sc_mcu7t5v0__clkbuf_1
XANTENNA__1657__A1 mod.cpu.bufreg2.dat\[21\] vdd vss gf180mcu_fd_sc_mcu7t5v0__antenna
X_1184_ _0760_ _0761_ vdd vss gf180mcu_fd_sc_mcu7t5v0__clkbuf_1
XFILLER_37_567 vdd vss gf180mcu_fd_sc_mcu7t5v0__fill_1
XFILLER_64_353 vdd vss gf180mcu_fd_sc_mcu7t5v0__fillcap_32
XFILLER_65_854 vdd vss gf180mcu_fd_sc_mcu7t5v0__fillcap_64
XFILLER_92_673 vdd vss gf180mcu_fd_sc_mcu7t5v0__fill_1
XFILLER_91_150 vdd vss gf180mcu_fd_sc_mcu7t5v0__fill_2
XFILLER_32_250 vdd vss gf180mcu_fd_sc_mcu7t5v0__fillcap_64
XFILLER_71_1028 vdd vss gf180mcu_fd_sc_mcu7t5v0__fillcap_8
XFILLER_20_456 vdd vss gf180mcu_fd_sc_mcu7t5v0__fillcap_4
XFILLER_145_141 vdd vss gf180mcu_fd_sc_mcu7t5v0__fill_1
XFILLER_134_815 vdd vss gf180mcu_fd_sc_mcu7t5v0__fill_1
XFILLER_161_634 vdd vss gf180mcu_fd_sc_mcu7t5v0__fillcap_4
XFILLER_118_388 vdd vss gf180mcu_fd_sc_mcu7t5v0__fill_2
XFILLER_99_272 vdd vss gf180mcu_fd_sc_mcu7t5v0__fill_2
XFILLER_99_261 vdd vss gf180mcu_fd_sc_mcu7t5v0__fill_1
XFILLER_99_283 vdd vss gf180mcu_fd_sc_mcu7t5v0__fill_1
XFILLER_88_957 vdd vss gf180mcu_fd_sc_mcu7t5v0__fill_1
XFILLER_0_839 vdd vss gf180mcu_fd_sc_mcu7t5v0__fill_1
XFILLER_114_23 vdd vss gf180mcu_fd_sc_mcu7t5v0__fillcap_8
XFILLER_101_244 vdd vss gf180mcu_fd_sc_mcu7t5v0__fill_1
XFILLER_114_89 vdd vss gf180mcu_fd_sc_mcu7t5v0__fill_2
XFILLER_28_534 vdd vss gf180mcu_fd_sc_mcu7t5v0__fillcap_64
XFILLER_67_191 vdd vss gf180mcu_fd_sc_mcu7t5v0__fill_2
XFILLER_82_161 vdd vss gf180mcu_fd_sc_mcu7t5v0__fill_2
XFILLER_82_194 vdd vss gf180mcu_fd_sc_mcu7t5v0__fill_2
XFILLER_24_740 vdd vss gf180mcu_fd_sc_mcu7t5v0__fillcap_4
XFILLER_90_37 vdd vss gf180mcu_fd_sc_mcu7t5v0__fill_1
XFILLER_157_918 vdd vss gf180mcu_fd_sc_mcu7t5v0__fillcap_4
XFILLER_23_283 vdd vss gf180mcu_fd_sc_mcu7t5v0__fill_1
XFILLER_51_570 vdd vss gf180mcu_fd_sc_mcu7t5v0__fillcap_64
XANTENNA__2075__CLK net4 vdd vss gf180mcu_fd_sc_mcu7t5v0__antenna
XFILLER_128_108 vdd vss gf180mcu_fd_sc_mcu7t5v0__fillcap_64
XFILLER_12_957 vdd vss gf180mcu_fd_sc_mcu7t5v0__fill_1
XFILLER_128_2 vdd vss gf180mcu_fd_sc_mcu7t5v0__fillcap_32
XFILLER_164_461 vdd vss gf180mcu_fd_sc_mcu7t5v0__fill_2
XFILLER_124_314 vdd vss gf180mcu_fd_sc_mcu7t5v0__fillcap_4
XANTENNA__1693__S _0383_ vdd vss gf180mcu_fd_sc_mcu7t5v0__antenna
XFILLER_151_144 vdd vss gf180mcu_fd_sc_mcu7t5v0__fillcap_64
XFILLER_140_818 vdd vss gf180mcu_fd_sc_mcu7t5v0__fillcap_64
XANTENNA__1706__B _0391_ vdd vss gf180mcu_fd_sc_mcu7t5v0__antenna
XFILLER_120_531 vdd vss gf180mcu_fd_sc_mcu7t5v0__fill_1
XFILLER_2_176 vdd vss gf180mcu_fd_sc_mcu7t5v0__fill_1
XFILLER_78_456 vdd vss gf180mcu_fd_sc_mcu7t5v0__fillcap_4
XFILLER_48_83 vdd vss gf180mcu_fd_sc_mcu7t5v0__fill_1
XFILLER_111_1044 vdd vss gf180mcu_fd_sc_mcu7t5v0__fill_1
XFILLER_47_854 vdd vss gf180mcu_fd_sc_mcu7t5v0__fillcap_64
XFILLER_74_673 vdd vss gf180mcu_fd_sc_mcu7t5v0__fill_1
XFILLER_73_150 vdd vss gf180mcu_fd_sc_mcu7t5v0__fill_2
XFILLER_19_567 vdd vss gf180mcu_fd_sc_mcu7t5v0__fill_1
XFILLER_61_301 vdd vss gf180mcu_fd_sc_mcu7t5v0__fillcap_8
XTAP_2161 vdd vss gf180mcu_fd_sc_mcu7t5v0__filltie
XTAP_2150 vdd vss gf180mcu_fd_sc_mcu7t5v0__filltie
XFILLER_94_1039 vdd vss gf180mcu_fd_sc_mcu7t5v0__fill_1
XFILLER_94_1028 vdd vss gf180mcu_fd_sc_mcu7t5v0__fill_1
XFILLER_61_312 vdd vss gf180mcu_fd_sc_mcu7t5v0__fill_2
XTAP_2194 vdd vss gf180mcu_fd_sc_mcu7t5v0__filltie
XTAP_2183 vdd vss gf180mcu_fd_sc_mcu7t5v0__filltie
XTAP_2172 vdd vss gf180mcu_fd_sc_mcu7t5v0__filltie
XTAP_1460 vdd vss gf180mcu_fd_sc_mcu7t5v0__filltie
XTAP_1493 vdd vss gf180mcu_fd_sc_mcu7t5v0__filltie
XTAP_1482 vdd vss gf180mcu_fd_sc_mcu7t5v0__filltie
XTAP_1471 vdd vss gf180mcu_fd_sc_mcu7t5v0__filltie
XFILLER_14_250 vdd vss gf180mcu_fd_sc_mcu7t5v0__fillcap_64
X_1940_ _0535_ _0555_ vdd vss gf180mcu_fd_sc_mcu7t5v0__clkbuf_1
XANTENNA__1811__A1 mod.cpu.bufreg2.i_dat\[18\] vdd vss gf180mcu_fd_sc_mcu7t5v0__antenna
XFILLER_9_66 vdd vss gf180mcu_fd_sc_mcu7t5v0__fillcap_4
X_1871_ _0510_ _0197_ vdd vss gf180mcu_fd_sc_mcu7t5v0__clkbuf_1
XFILLER_147_428 vdd vss gf180mcu_fd_sc_mcu7t5v0__fillcap_64
XFILLER_80_81 vdd vss gf180mcu_fd_sc_mcu7t5v0__fill_2
XFILLER_127_141 vdd vss gf180mcu_fd_sc_mcu7t5v0__fill_1
XFILLER_116_815 vdd vss gf180mcu_fd_sc_mcu7t5v0__fill_1
XFILLER_143_634 vdd vss gf180mcu_fd_sc_mcu7t5v0__fillcap_4
XFILLER_115_314 vdd vss gf180mcu_fd_sc_mcu7t5v0__fill_2
XFILLER_6_460 vdd vss gf180mcu_fd_sc_mcu7t5v0__fill_1
XFILLER_89_90 vdd vss gf180mcu_fd_sc_mcu7t5v0__fill_2
XFILLER_88_209 vdd vss gf180mcu_fd_sc_mcu7t5v0__fillcap_16
XFILLER_43_2 vdd vss gf180mcu_fd_sc_mcu7t5v0__fill_1
XFILLER_97_776 vdd vss gf180mcu_fd_sc_mcu7t5v0__fillcap_4
XFILLER_96_242 vdd vss gf180mcu_fd_sc_mcu7t5v0__fill_1
X_1305_ _0652_ mod.u_scanchain_local.module_data_in\[57\] _0848_ vdd vss gf180mcu_fd_sc_mcu7t5v0__nand2_1
X_1236_ _0805_ _0806_ _0807_ vdd vss gf180mcu_fd_sc_mcu7t5v0__nand2_1
XFILLER_56_139 vdd vss gf180mcu_fd_sc_mcu7t5v0__fillcap_4
X_1167_ mod.cpu.immdec.imm11_7\[2\] _0747_ vdd vss gf180mcu_fd_sc_mcu7t5v0__clkinv_1
XFILLER_93_993 vdd vss gf180mcu_fd_sc_mcu7t5v0__fill_1
XFILLER_64_150 vdd vss gf180mcu_fd_sc_mcu7t5v0__fillcap_4
XFILLER_64_161 vdd vss gf180mcu_fd_sc_mcu7t5v0__fillcap_4
XANTENNA__2098__CLK net4 vdd vss gf180mcu_fd_sc_mcu7t5v0__antenna
XFILLER_64_172 vdd vss gf180mcu_fd_sc_mcu7t5v0__fill_2
X_1098_ mod.cpu.branch_op _0683_ vdd vss gf180mcu_fd_sc_mcu7t5v0__clkbuf_1
XFILLER_80_676 vdd vss gf180mcu_fd_sc_mcu7t5v0__fillcap_64
XFILLER_52_367 vdd vss gf180mcu_fd_sc_mcu7t5v0__fill_2
XFILLER_33_570 vdd vss gf180mcu_fd_sc_mcu7t5v0__fillcap_64
XFILLER_52_389 vdd vss gf180mcu_fd_sc_mcu7t5v0__fill_1
XFILLER_139_918 vdd vss gf180mcu_fd_sc_mcu7t5v0__fillcap_4
XANTENNA__1577__I _0284_ vdd vss gf180mcu_fd_sc_mcu7t5v0__antenna
XFILLER_21_776 vdd vss gf180mcu_fd_sc_mcu7t5v0__fillcap_4
XFILLER_106_347 vdd vss gf180mcu_fd_sc_mcu7t5v0__fill_2
XFILLER_133_144 vdd vss gf180mcu_fd_sc_mcu7t5v0__fillcap_64
XFILLER_122_818 vdd vss gf180mcu_fd_sc_mcu7t5v0__fillcap_64
XFILLER_102_531 vdd vss gf180mcu_fd_sc_mcu7t5v0__fill_1
XFILLER_0_625 vdd vss gf180mcu_fd_sc_mcu7t5v0__fillcap_4
XFILLER_87_231 vdd vss gf180mcu_fd_sc_mcu7t5v0__fill_2
XFILLER_87_286 vdd vss gf180mcu_fd_sc_mcu7t5v0__fill_2
XFILLER_84_960 vdd vss gf180mcu_fd_sc_mcu7t5v0__fillcap_64
XFILLER_18_31 vdd vss gf180mcu_fd_sc_mcu7t5v0__fillcap_4
XFILLER_29_854 vdd vss gf180mcu_fd_sc_mcu7t5v0__fillcap_64
XFILLER_55_161 vdd vss gf180mcu_fd_sc_mcu7t5v0__fill_2
XFILLER_56_673 vdd vss gf180mcu_fd_sc_mcu7t5v0__fill_1
XFILLER_83_492 vdd vss gf180mcu_fd_sc_mcu7t5v0__fillcap_4
XFILLER_70_153 vdd vss gf180mcu_fd_sc_mcu7t5v0__fill_2
XFILLER_129_428 vdd vss gf180mcu_fd_sc_mcu7t5v0__fillcap_64
XFILLER_8_747 vdd vss gf180mcu_fd_sc_mcu7t5v0__fillcap_64
XFILLER_156_247 vdd vss gf180mcu_fd_sc_mcu7t5v0__fill_1
XFILLER_109_141 vdd vss gf180mcu_fd_sc_mcu7t5v0__fill_1
XFILLER_11_286 vdd vss gf180mcu_fd_sc_mcu7t5v0__fillcap_64
XFILLER_109_152 vdd vss gf180mcu_fd_sc_mcu7t5v0__fill_2
XFILLER_7_279 vdd vss gf180mcu_fd_sc_mcu7t5v0__fillcap_4
XFILLER_50_73 vdd vss gf180mcu_fd_sc_mcu7t5v0__fill_2
XFILLER_125_634 vdd vss gf180mcu_fd_sc_mcu7t5v0__fillcap_4
XFILLER_4_953 vdd vss gf180mcu_fd_sc_mcu7t5v0__fillcap_4
XFILLER_112_317 vdd vss gf180mcu_fd_sc_mcu7t5v0__fill_2
XFILLER_112_306 vdd vss gf180mcu_fd_sc_mcu7t5v0__fill_2
XTAP_507 vdd vss gf180mcu_fd_sc_mcu7t5v0__filltie
XANTENNA__1436__B _0950_ vdd vss gf180mcu_fd_sc_mcu7t5v0__antenna
XTAP_529 vdd vss gf180mcu_fd_sc_mcu7t5v0__filltie
XTAP_518 vdd vss gf180mcu_fd_sc_mcu7t5v0__filltie
XFILLER_3_496 vdd vss gf180mcu_fd_sc_mcu7t5v0__fill_1
XFILLER_121_851 vdd vss gf180mcu_fd_sc_mcu7t5v0__fill_1
XFILLER_79_776 vdd vss gf180mcu_fd_sc_mcu7t5v0__fillcap_4
XFILLER_78_253 vdd vss gf180mcu_fd_sc_mcu7t5v0__fillcap_4
XFILLER_78_242 vdd vss gf180mcu_fd_sc_mcu7t5v0__fill_2
XFILLER_93_212 vdd vss gf180mcu_fd_sc_mcu7t5v0__fill_1
XFILLER_93_234 vdd vss gf180mcu_fd_sc_mcu7t5v0__fill_2
XFILLER_78_297 vdd vss gf180mcu_fd_sc_mcu7t5v0__fillcap_16
X_2070_ _0058_ net4 mod.u_scanchain_local.module_data_in\[65\] vdd vss gf180mcu_fd_sc_mcu7t5v0__dffq_1
XFILLER_38_139 vdd vss gf180mcu_fd_sc_mcu7t5v0__fill_2
XANTENNA__2240__CLK net3 vdd vss gf180mcu_fd_sc_mcu7t5v0__antenna
X_1021_ mod.cpu.decode.opcode\[0\] _0616_ mod.cpu.decode.opcode\[2\] _0617_ vdd vss
+ gf180mcu_fd_sc_mcu7t5v0__nor3_1
XFILLER_75_993 vdd vss gf180mcu_fd_sc_mcu7t5v0__fill_1
XFILLER_75_70 vdd vss gf180mcu_fd_sc_mcu7t5v0__fill_1
XFILLER_61_120 vdd vss gf180mcu_fd_sc_mcu7t5v0__fill_1
XFILLER_62_676 vdd vss gf180mcu_fd_sc_mcu7t5v0__fillcap_64
XFILLER_15_570 vdd vss gf180mcu_fd_sc_mcu7t5v0__fillcap_64
XFILLER_34_389 vdd vss gf180mcu_fd_sc_mcu7t5v0__fill_1
X_1923_ mod.cpu.ctrl.o_ibus_adr\[5\] _0540_ _0543_ mod.cpu.ctrl.o_ibus_adr\[6\] _0545_
+ vdd vss gf180mcu_fd_sc_mcu7t5v0__aoi22_1
XTAP_1290 vdd vss gf180mcu_fd_sc_mcu7t5v0__filltie
X_1854_ _0495_ _0501_ vdd vss gf180mcu_fd_sc_mcu7t5v0__buf_2
X_1785_ mod.cpu.immdec.imm19_12_20\[2\] _0397_ _0455_ vdd vss gf180mcu_fd_sc_mcu7t5v0__nand2_1
XFILLER_115_133 vdd vss gf180mcu_fd_sc_mcu7t5v0__fill_2
XANTENNA__1012__A2 _0607_ vdd vss gf180mcu_fd_sc_mcu7t5v0__antenna
XFILLER_7_780 vdd vss gf180mcu_fd_sc_mcu7t5v0__fill_1
XFILLER_157_1044 vdd vss gf180mcu_fd_sc_mcu7t5v0__fill_1
XFILLER_115_144 vdd vss gf180mcu_fd_sc_mcu7t5v0__fill_1
XFILLER_104_818 vdd vss gf180mcu_fd_sc_mcu7t5v0__fillcap_64
XFILLER_103_306 vdd vss gf180mcu_fd_sc_mcu7t5v0__fill_2
XFILLER_118_1039 vdd vss gf180mcu_fd_sc_mcu7t5v0__fill_1
XFILLER_118_1028 vdd vss gf180mcu_fd_sc_mcu7t5v0__fill_1
XFILLER_69_231 vdd vss gf180mcu_fd_sc_mcu7t5v0__fill_2
XFILLER_84_212 vdd vss gf180mcu_fd_sc_mcu7t5v0__fill_2
XFILLER_69_286 vdd vss gf180mcu_fd_sc_mcu7t5v0__fill_1
XFILLER_84_223 vdd vss gf180mcu_fd_sc_mcu7t5v0__fill_1
X_1219_ _0780_ _0793_ vdd vss gf180mcu_fd_sc_mcu7t5v0__clkbuf_1
XANTENNA__1079__A2 _0661_ vdd vss gf180mcu_fd_sc_mcu7t5v0__antenna
XFILLER_38_673 vdd vss gf180mcu_fd_sc_mcu7t5v0__fill_1
XFILLER_66_960 vdd vss gf180mcu_fd_sc_mcu7t5v0__fillcap_64
XFILLER_37_172 vdd vss gf180mcu_fd_sc_mcu7t5v0__fill_2