*SPEF "ieee 1481-1999"
*DESIGN "serv_0"
*DATE "11:11:11 Fri 11 11, 1111"
*VENDOR "OpenRCX"
*PROGRAM "Parallel Extraction"
*VERSION "1.0"
*DESIGN_FLOW "NAME_SCOPE LOCAL" "PIN_CAP NONE"
*DIVIDER /
*DELIMITER :
*BUS_DELIMITER []
*T_UNIT 1 NS
*C_UNIT 1 PF
*R_UNIT 1 OHM
*L_UNIT 1 HENRY

*NAME_MAP
*1 io_in[0]
*2 io_in[1]
*3 io_in[2]
*4 io_in[3]
*5 io_in[4]
*6 net157
*7 net158
*8 net159
*9 net160
*10 net161
*11 io_out[0]
*12 io_out[1]
*13 net162
*14 net163
*15 net164
*18 _0000_
*19 _0001_
*20 _0002_
*21 _0003_
*22 _0004_
*23 _0005_
*24 _0006_
*25 _0007_
*26 _0008_
*27 _0009_
*28 _0010_
*29 _0011_
*30 _0012_
*31 _0013_
*32 _0014_
*33 _0015_
*34 _0016_
*35 _0017_
*36 _0018_
*37 _0019_
*38 _0020_
*39 _0021_
*40 _0022_
*41 _0023_
*42 _0024_
*43 _0025_
*44 _0026_
*45 _0027_
*46 _0028_
*47 _0029_
*48 _0030_
*49 _0031_
*50 _0032_
*51 _0033_
*52 _0034_
*53 _0035_
*54 _0036_
*55 _0037_
*56 _0038_
*57 _0039_
*58 _0040_
*59 _0041_
*60 _0042_
*61 _0043_
*62 _0044_
*63 _0045_
*64 _0046_
*65 _0047_
*66 _0048_
*67 _0049_
*68 _0050_
*69 _0051_
*70 _0052_
*71 _0053_
*72 _0054_
*73 _0055_
*74 _0056_
*75 _0057_
*76 _0058_
*77 _0059_
*78 _0060_
*79 _0061_
*80 _0062_
*81 _0063_
*82 _0064_
*83 _0065_
*84 _0066_
*85 _0067_
*86 _0068_
*87 _0069_
*88 _0070_
*89 _0071_
*90 _0072_
*91 _0073_
*92 _0074_
*93 _0075_
*94 _0076_
*95 _0077_
*96 _0078_
*97 _0079_
*98 _0080_
*99 _0081_
*100 _0082_
*101 _0083_
*102 _0084_
*103 _0085_
*104 _0086_
*105 _0087_
*106 _0088_
*107 _0089_
*108 _0090_
*109 _0091_
*110 _0092_
*111 _0093_
*112 _0094_
*113 _0095_
*114 _0096_
*115 _0097_
*116 _0098_
*117 _0099_
*118 _0100_
*119 _0101_
*120 _0102_
*121 _0103_
*122 _0104_
*123 _0105_
*124 _0106_
*125 _0107_
*126 _0108_
*127 _0109_
*128 _0110_
*129 _0111_
*130 _0112_
*131 _0113_
*132 _0114_
*133 _0115_
*134 _0116_
*135 _0117_
*136 _0118_
*137 _0119_
*138 _0120_
*139 _0121_
*140 _0122_
*141 _0123_
*142 _0124_
*143 _0125_
*144 _0126_
*145 _0127_
*146 _0128_
*147 _0129_
*148 _0130_
*149 _0131_
*150 _0132_
*151 _0133_
*152 _0134_
*153 _0135_
*154 _0136_
*155 _0137_
*156 _0138_
*157 _0139_
*158 _0140_
*159 _0141_
*160 _0142_
*161 _0143_
*162 _0144_
*163 _0145_
*164 _0146_
*165 _0147_
*166 _0148_
*167 _0149_
*168 _0150_
*169 _0151_
*170 _0152_
*171 _0153_
*172 _0154_
*173 _0155_
*174 _0156_
*175 _0157_
*176 _0158_
*177 _0159_
*178 _0160_
*179 _0161_
*180 _0162_
*181 _0163_
*182 _0164_
*183 _0165_
*184 _0166_
*185 _0167_
*186 _0168_
*187 _0169_
*188 _0170_
*189 _0171_
*190 _0172_
*191 _0173_
*192 _0174_
*193 _0175_
*194 _0176_
*195 _0177_
*196 _0178_
*197 _0179_
*198 _0180_
*199 _0181_
*200 _0182_
*201 _0183_
*202 _0184_
*203 _0185_
*204 _0186_
*205 _0187_
*206 _0188_
*207 _0189_
*208 _0190_
*209 _0191_
*210 _0192_
*211 _0193_
*212 _0194_
*213 _0195_
*214 _0196_
*215 _0197_
*216 _0198_
*217 _0199_
*218 _0200_
*219 _0201_
*220 _0202_
*221 _0203_
*222 _0204_
*223 _0205_
*224 _0206_
*225 _0207_
*226 _0208_
*227 _0209_
*228 _0210_
*229 _0211_
*230 _0212_
*231 _0213_
*232 _0214_
*233 _0215_
*234 _0216_
*235 _0217_
*236 _0218_
*237 _0219_
*238 _0220_
*239 _0221_
*240 _0222_
*241 _0223_
*242 _0224_
*243 _0225_
*244 _0226_
*245 _0227_
*246 _0228_
*247 _0229_
*248 _0230_
*249 _0231_
*250 _0232_
*251 _0233_
*252 _0234_
*253 _0235_
*254 _0236_
*255 _0237_
*256 _0238_
*257 _0239_
*258 _0240_
*259 _0241_
*260 _0242_
*261 _0243_
*262 _0244_
*263 _0245_
*264 _0246_
*265 _0247_
*266 _0248_
*267 _0249_
*268 _0250_
*269 _0251_
*270 _0252_
*271 _0253_
*272 _0254_
*273 _0255_
*274 _0256_
*275 _0257_
*276 _0258_
*277 _0259_
*278 _0260_
*279 _0261_
*280 _0262_
*281 _0263_
*282 _0264_
*283 _0265_
*284 _0266_
*285 _0267_
*286 _0268_
*287 _0269_
*288 _0270_
*289 _0271_
*290 _0272_
*291 _0273_
*292 _0274_
*293 _0275_
*294 _0276_
*295 _0277_
*296 _0278_
*297 _0279_
*298 _0280_
*299 _0281_
*300 _0282_
*301 _0283_
*302 _0284_
*303 _0285_
*304 _0286_
*305 _0287_
*306 _0288_
*307 _0289_
*308 _0290_
*309 _0291_
*310 _0292_
*311 _0293_
*312 _0294_
*313 _0295_
*314 _0296_
*315 _0297_
*316 _0298_
*317 _0299_
*318 _0300_
*319 _0301_
*320 _0302_
*321 _0303_
*322 _0304_
*323 _0305_
*324 _0306_
*325 _0307_
*326 _0308_
*327 _0309_
*328 _0310_
*329 _0311_
*330 _0312_
*331 _0313_
*332 _0314_
*333 _0315_
*334 _0316_
*335 _0317_
*336 _0318_
*337 _0319_
*338 _0320_
*339 _0321_
*340 _0322_
*341 _0323_
*342 _0324_
*343 _0325_
*344 _0326_
*345 _0327_
*346 _0328_
*347 _0329_
*348 _0330_
*349 _0331_
*350 _0332_
*351 _0333_
*352 _0334_
*353 _0335_
*354 _0336_
*355 _0337_
*356 _0338_
*357 _0339_
*358 _0340_
*359 _0341_
*360 _0342_
*361 _0343_
*362 _0344_
*363 _0345_
*364 _0346_
*365 _0347_
*366 _0348_
*367 _0349_
*368 _0350_
*369 _0351_
*370 _0352_
*371 _0353_
*372 _0354_
*373 _0355_
*374 _0356_
*375 _0357_
*376 _0358_
*377 _0359_
*378 _0360_
*379 _0361_
*380 _0362_
*381 _0363_
*382 _0364_
*383 _0365_
*384 _0366_
*385 _0367_
*386 _0368_
*387 _0369_
*388 _0370_
*389 _0371_
*390 _0372_
*391 _0373_
*392 _0374_
*393 _0375_
*394 _0376_
*395 _0377_
*396 _0378_
*397 _0379_
*398 _0380_
*399 _0381_
*400 _0382_
*401 _0383_
*402 _0384_
*403 _0385_
*404 _0386_
*405 _0387_
*406 _0388_
*407 _0389_
*408 _0390_
*409 _0391_
*410 _0392_
*411 _0393_
*412 _0394_
*413 _0395_
*414 _0396_
*415 _0397_
*416 _0398_
*417 _0399_
*418 _0400_
*419 _0401_
*420 _0402_
*421 _0403_
*422 _0404_
*423 _0405_
*424 _0406_
*425 _0407_
*426 _0408_
*427 _0409_
*428 _0410_
*429 _0411_
*430 _0412_
*431 _0413_
*432 _0414_
*433 _0415_
*434 _0416_
*435 _0417_
*436 _0418_
*437 _0419_
*438 _0420_
*439 _0421_
*440 _0422_
*441 _0423_
*442 _0424_
*443 _0425_
*444 _0426_
*445 _0427_
*446 _0428_
*447 _0429_
*448 _0430_
*449 _0431_
*450 _0432_
*451 _0433_
*452 _0434_
*453 _0435_
*454 _0436_
*455 _0437_
*456 _0438_
*457 _0439_
*458 _0440_
*459 _0441_
*460 _0442_
*461 _0443_
*462 _0444_
*463 _0445_
*464 _0446_
*465 _0447_
*466 _0448_
*467 _0449_
*468 _0450_
*469 _0451_
*470 _0452_
*471 _0453_
*472 _0454_
*473 _0455_
*474 _0456_
*475 _0457_
*476 _0458_
*477 _0459_
*478 _0460_
*479 _0461_
*480 _0462_
*481 _0463_
*482 _0464_
*483 _0465_
*484 _0466_
*485 _0467_
*486 _0468_
*487 _0469_
*488 _0470_
*489 _0471_
*490 _0472_
*491 _0473_
*492 _0474_
*493 _0475_
*494 _0476_
*495 _0477_
*496 _0478_
*497 _0479_
*498 _0480_
*499 _0481_
*500 _0482_
*501 _0483_
*502 _0484_
*503 _0485_
*504 _0486_
*505 _0487_
*506 _0488_
*507 _0489_
*508 _0490_
*509 _0491_
*510 _0492_
*511 _0493_
*512 _0494_
*513 _0495_
*514 _0496_
*515 _0497_
*516 _0498_
*517 _0499_
*518 _0500_
*519 _0501_
*520 _0502_
*521 _0503_
*522 _0504_
*523 _0505_
*524 _0506_
*525 _0507_
*526 _0508_
*527 _0509_
*528 _0510_
*529 _0511_
*530 _0512_
*531 _0513_
*532 _0514_
*533 _0515_
*534 _0516_
*535 _0517_
*536 _0518_
*537 _0519_
*538 _0520_
*539 _0521_
*540 _0522_
*541 _0523_
*542 _0524_
*543 _0525_
*544 _0526_
*545 _0527_
*546 _0528_
*547 _0529_
*548 _0530_
*549 _0531_
*550 _0532_
*551 _0533_
*552 _0534_
*553 _0535_
*554 _0536_
*555 _0537_
*556 _0538_
*557 _0539_
*558 _0540_
*559 _0541_
*560 _0542_
*561 _0543_
*562 _0544_
*563 _0545_
*564 _0546_
*565 _0547_
*566 _0548_
*567 _0549_
*568 _0550_
*569 _0551_
*570 _0552_
*571 _0553_
*572 _0554_
*573 _0555_
*574 _0556_
*575 _0557_
*576 _0558_
*577 _0559_
*578 _0560_
*579 _0561_
*580 _0562_
*581 _0563_
*582 _0564_
*583 _0565_
*584 _0566_
*585 _0567_
*586 _0568_
*587 _0569_
*588 _0570_
*589 _0571_
*590 _0572_
*591 _0573_
*592 _0574_
*593 _0575_
*594 _0576_
*595 _0577_
*596 _0578_
*597 _0579_
*598 _0580_
*599 _0581_
*600 _0582_
*601 _0583_
*602 _0584_
*603 _0585_
*604 _0586_
*605 _0587_
*606 _0588_
*607 _0589_
*608 _0590_
*609 _0591_
*610 _0592_
*611 _0593_
*612 _0594_
*613 _0595_
*614 _0596_
*615 _0597_
*616 _0598_
*617 _0599_
*618 _0600_
*619 _0601_
*620 _0602_
*621 _0603_
*622 _0604_
*623 _0605_
*624 _0606_
*625 _0607_
*626 _0608_
*627 _0609_
*628 _0610_
*629 _0611_
*630 _0612_
*631 _0613_
*632 _0614_
*633 _0615_
*634 _0616_
*635 _0617_
*636 _0618_
*637 _0619_
*638 _0620_
*639 _0621_
*640 _0622_
*641 _0623_
*642 _0624_
*643 _0625_
*644 _0626_
*645 _0627_
*646 _0628_
*647 _0629_
*648 _0630_
*649 _0631_
*650 _0632_
*651 _0633_
*652 _0634_
*653 _0635_
*654 _0636_
*655 _0637_
*656 _0638_
*657 _0639_
*658 _0640_
*659 _0641_
*660 _0642_
*661 _0643_
*662 _0644_
*663 _0645_
*664 _0646_
*665 _0647_
*666 _0648_
*667 _0649_
*668 _0650_
*669 _0651_
*670 _0652_
*671 _0653_
*672 _0654_
*673 _0655_
*674 _0656_
*675 _0657_
*676 _0658_
*677 _0659_
*678 _0660_
*679 _0661_
*680 _0662_
*681 _0663_
*682 _0664_
*683 _0665_
*684 _0666_
*685 _0667_
*686 _0668_
*687 _0669_
*688 _0670_
*689 _0671_
*690 _0672_
*691 _0673_
*692 _0674_
*693 _0675_
*694 _0676_
*695 _0677_
*696 _0678_
*697 _0679_
*698 _0680_
*699 _0681_
*700 _0682_
*701 _0683_
*702 _0684_
*703 _0685_
*704 _0686_
*705 _0687_
*706 _0688_
*707 _0689_
*708 _0690_
*709 _0691_
*710 _0692_
*711 _0693_
*712 _0694_
*713 _0695_
*714 _0696_
*715 _0697_
*716 _0698_
*717 _0699_
*718 _0700_
*719 _0701_
*720 _0702_
*721 _0703_
*722 _0704_
*723 _0705_
*724 _0706_
*725 _0707_
*726 _0708_
*727 _0709_
*728 _0710_
*729 _0711_
*730 _0712_
*731 _0713_
*732 _0714_
*733 _0715_
*734 _0716_
*735 _0717_
*736 _0718_
*737 _0719_
*738 _0720_
*739 _0721_
*740 _0722_
*741 _0723_
*742 _0724_
*743 _0725_
*744 _0726_
*745 _0727_
*746 _0728_
*747 _0729_
*748 _0730_
*749 _0731_
*750 _0732_
*751 _0733_
*752 _0734_
*753 _0735_
*754 _0736_
*755 _0737_
*756 _0738_
*757 _0739_
*758 _0740_
*759 _0741_
*760 _0742_
*761 _0743_
*762 _0744_
*763 _0745_
*764 _0746_
*765 _0747_
*766 _0748_
*767 _0749_
*768 _0750_
*769 _0751_
*770 _0752_
*771 _0753_
*772 _0754_
*773 _0755_
*774 _0756_
*775 _0757_
*776 _0758_
*777 _0759_
*778 _0760_
*779 _0761_
*780 _0762_
*781 _0763_
*782 _0764_
*783 _0765_
*784 _0766_
*785 _0767_
*786 _0768_
*787 _0769_
*788 _0770_
*789 _0771_
*790 _0772_
*791 _0773_
*792 _0774_
*793 _0775_
*794 _0776_
*795 _0777_
*796 _0778_
*797 _0779_
*798 _0780_
*799 _0781_
*800 _0782_
*801 _0783_
*802 _0784_
*803 _0785_
*804 _0786_
*805 _0787_
*806 _0788_
*807 _0789_
*808 _0790_
*809 _0791_
*810 _0792_
*811 _0793_
*812 _0794_
*813 _0795_
*814 _0796_
*815 _0797_
*816 _0798_
*817 _0799_
*818 _0800_
*819 _0801_
*820 _0802_
*821 _0803_
*822 _0804_
*823 _0805_
*824 _0806_
*825 _0807_
*826 _0808_
*827 _0809_
*828 _0810_
*829 _0811_
*830 _0812_
*831 _0813_
*832 _0814_
*833 _0815_
*834 _0816_
*835 _0817_
*836 _0818_
*837 _0819_
*838 _0820_
*839 _0821_
*840 _0822_
*841 _0823_
*842 _0824_
*843 _0825_
*844 _0826_
*845 _0827_
*846 _0828_
*847 _0829_
*848 _0830_
*849 _0831_
*850 _0832_
*851 _0833_
*852 _0834_
*853 _0835_
*854 _0836_
*855 _0837_
*856 _0838_
*857 _0839_
*858 _0840_
*859 _0841_
*860 _0842_
*861 _0843_
*862 _0844_
*863 _0845_
*864 _0846_
*865 _0847_
*866 _0848_
*867 _0849_
*868 _0850_
*869 _0851_
*870 _0852_
*871 _0853_
*872 _0854_
*873 _0855_
*874 _0856_
*875 _0857_
*876 _0858_
*877 _0859_
*878 _0860_
*879 _0861_
*880 _0862_
*881 _0863_
*882 _0864_
*883 _0865_
*884 _0866_
*885 _0867_
*886 _0868_
*887 _0869_
*888 _0870_
*889 _0871_
*890 _0872_
*891 _0873_
*892 _0874_
*893 _0875_
*894 _0876_
*895 _0877_
*896 _0878_
*897 _0879_
*898 _0880_
*899 _0881_
*900 _0882_
*901 _0883_
*902 _0884_
*903 _0885_
*904 _0886_
*905 _0887_
*906 _0888_
*907 _0889_
*908 _0890_
*909 _0891_
*910 _0892_
*911 _0893_
*912 _0894_
*913 _0895_
*914 _0896_
*915 _0897_
*916 _0898_
*917 _0899_
*918 _0900_
*919 _0901_
*920 _0902_
*921 _0903_
*922 _0904_
*923 _0905_
*924 _0906_
*925 _0907_
*926 _0908_
*927 _0909_
*928 _0910_
*929 _0911_
*930 _0912_
*931 _0913_
*932 _0914_
*933 _0915_
*934 _0916_
*935 _0917_
*936 _0918_
*937 _0919_
*938 _0920_
*939 _0921_
*940 _0922_
*941 _0923_
*942 _0924_
*943 _0925_
*944 _0926_
*945 _0927_
*946 _0928_
*947 _0929_
*948 _0930_
*949 _0931_
*950 _0932_
*951 _0933_
*952 _0934_
*953 _0935_
*954 _0936_
*955 _0937_
*956 _0938_
*957 _0939_
*958 _0940_
*959 _0941_
*960 _0942_
*961 _0943_
*962 _0944_
*963 _0945_
*964 _0946_
*965 _0947_
*966 _0948_
*967 _0949_
*968 _0950_
*969 _0951_
*970 _0952_
*971 _0953_
*972 _0954_
*973 _0955_
*974 _0956_
*975 _0957_
*976 _0958_
*977 _0959_
*978 _0960_
*979 _0961_
*980 _0962_
*981 _0963_
*982 _0964_
*983 _0965_
*984 _0966_
*985 _0967_
*986 _0968_
*987 _0969_
*988 _0970_
*989 _0971_
*990 _0972_
*991 _0973_
*992 _0974_
*993 _0975_
*994 _0976_
*995 _0977_
*996 _0978_
*997 _0979_
*998 _0980_
*999 _0981_
*1000 _0982_
*1001 _0983_
*1002 _0984_
*1003 _0985_
*1004 _0986_
*1005 _0987_
*1006 _0988_
*1007 _0989_
*1008 _0990_
*1009 _0991_
*1010 _0992_
*1011 _0993_
*1012 _0994_
*1013 _0995_
*1014 _0996_
*1015 _0997_
*1016 _0998_
*1017 _0999_
*1018 _1000_
*1019 _1001_
*1020 _1002_
*1021 _1003_
*1022 _1004_
*1023 _1005_
*1024 _1006_
*1025 _1007_
*1026 _1008_
*1027 _1009_
*1028 _1010_
*1029 _1011_
*1030 _1012_
*1031 _1013_
*1032 _1014_
*1033 _1015_
*1034 _1016_
*1035 _1017_
*1036 _1018_
*1037 _1019_
*1038 _1020_
*1039 _1021_
*1040 _1022_
*1041 _1023_
*1042 _1024_
*1043 _1025_
*1044 _1026_
*1045 _1027_
*1046 _1028_
*1047 _1029_
*1048 _1030_
*1049 _1031_
*1050 _1032_
*1051 _1033_
*1052 _1034_
*1053 _1035_
*1054 _1036_
*1055 _1037_
*1056 _1038_
*1057 _1039_
*1058 _1040_
*1059 _1041_
*1060 _1042_
*1061 _1043_
*1062 _1044_
*1063 _1045_
*1064 _1046_
*1065 _1047_
*1066 _1048_
*1067 _1049_
*1068 _1050_
*1069 _1051_
*1070 _1052_
*1071 _1053_
*1072 _1054_
*1073 _1055_
*1074 _1056_
*1075 _1057_
*1076 _1058_
*1077 _1059_
*1078 _1060_
*1079 _1061_
*1080 _1062_
*1081 _1063_
*1082 _1064_
*1083 _1065_
*1084 _1066_
*1085 _1067_
*1086 _1068_
*1087 _1069_
*1088 _1070_
*1089 _1071_
*1090 _1072_
*1091 _1073_
*1092 _1074_
*1093 _1075_
*1094 _1076_
*1095 _1077_
*1096 _1078_
*1097 _1079_
*1098 _1080_
*1099 _1081_
*1100 _1082_
*1101 _1083_
*1102 _1084_
*1103 _1085_
*1104 _1086_
*1105 _1087_
*1106 _1088_
*1107 _1089_
*1108 _1090_
*1109 _1091_
*1110 _1092_
*1111 _1093_
*1112 _1094_
*1113 _1095_
*1114 _1096_
*1115 _1097_
*1116 _1098_
*1117 _1099_
*1118 _1100_
*1119 _1101_
*1120 _1102_
*1121 _1103_
*1122 _1104_
*1123 _1105_
*1124 _1106_
*1125 _1107_
*1126 _1108_
*1127 _1109_
*1128 _1110_
*1129 _1111_
*1130 _1112_
*1131 _1113_
*1132 _1114_
*1133 _1115_
*1134 _1116_
*1135 _1117_
*1136 _1118_
*1137 _1119_
*1138 _1120_
*1139 _1121_
*1140 _1122_
*1141 _1123_
*1142 _1124_
*1143 _1125_
*1144 _1126_
*1145 _1127_
*1146 _1128_
*1147 _1129_
*1148 _1130_
*1149 _1131_
*1150 _1132_
*1151 _1133_
*1152 _1134_
*1153 _1135_
*1154 _1136_
*1155 _1137_
*1156 _1138_
*1157 _1139_
*1158 _1140_
*1159 _1141_
*1160 _1142_
*1161 _1143_
*1162 _1144_
*1163 _1145_
*1164 _1146_
*1165 _1147_
*1166 _1148_
*1167 _1149_
*1168 _1150_
*1169 _1151_
*1170 _1152_
*1171 _1153_
*1172 _1154_
*1173 _1155_
*1174 _1156_
*1175 _1157_
*1176 _1158_
*1177 _1159_
*1178 _1160_
*1179 _1161_
*1180 _1162_
*1181 _1163_
*1182 _1164_
*1183 _1165_
*1184 _1166_
*1185 _1167_
*1186 _1168_
*1187 _1169_
*1188 _1170_
*1189 _1171_
*1190 _1172_
*1191 _1173_
*1192 _1174_
*1193 _1175_
*1194 _1176_
*1195 _1177_
*1196 _1178_
*1197 _1179_
*1198 _1180_
*1199 _1181_
*1200 _1182_
*1201 _1183_
*1202 _1184_
*1203 _1185_
*1204 _1186_
*1205 _1187_
*1206 _1188_
*1207 _1189_
*1208 _1190_
*1209 _1191_
*1210 _1192_
*1211 _1193_
*1212 _1194_
*1213 _1195_
*1214 _1196_
*1215 _1197_
*1216 _1198_
*1217 _1199_
*1218 _1200_
*1219 _1201_
*1220 _1202_
*1221 _1203_
*1222 _1204_
*1223 _1205_
*1224 _1206_
*1225 _1207_
*1226 _1208_
*1227 _1209_
*1228 _1210_
*1229 _1211_
*1230 _1212_
*1231 _1213_
*1232 _1214_
*1233 _1215_
*1234 _1216_
*1235 _1217_
*1236 _1218_
*1237 _1219_
*1238 _1220_
*1239 _1221_
*1240 _1222_
*1241 _1223_
*1242 _1224_
*1243 _1225_
*1244 _1226_
*1245 _1227_
*1246 _1228_
*1247 _1229_
*1248 _1230_
*1249 _1231_
*1250 _1232_
*1251 _1233_
*1252 _1234_
*1253 _1235_
*1254 _1236_
*1255 _1237_
*1256 _1238_
*1257 _1239_
*1258 _1240_
*1259 _1241_
*1260 _1242_
*1261 _1243_
*1262 _1244_
*1263 _1245_
*1264 _1246_
*1265 _1247_
*1266 _1248_
*1267 _1249_
*1268 _1250_
*1269 _1251_
*1270 _1252_
*1271 _1253_
*1272 _1254_
*1273 _1255_
*1274 _1256_
*1275 _1257_
*1276 _1258_
*1277 _1259_
*1278 _1260_
*1279 _1261_
*1280 _1262_
*1281 _1263_
*1282 _1264_
*1283 _1265_
*1284 _1266_
*1285 _1267_
*1286 _1268_
*1287 _1269_
*1288 _1270_
*1289 _1271_
*1290 _1272_
*1291 _1273_
*1292 _1274_
*1293 _1275_
*1294 _1276_
*1295 _1277_
*1296 _1278_
*1297 _1279_
*1298 _1280_
*1299 _1281_
*1300 _1282_
*1301 _1283_
*1302 _1284_
*1303 _1285_
*1304 _1286_
*1305 _1287_
*1306 _1288_
*1307 _1289_
*1308 _1290_
*1309 _1291_
*1310 _1292_
*1311 _1293_
*1312 _1294_
*1313 _1295_
*1314 _1296_
*1315 _1297_
*1316 _1298_
*1317 _1299_
*1318 _1300_
*1319 _1301_
*1320 _1302_
*1321 _1303_
*1322 _1304_
*1323 _1305_
*1324 _1306_
*1325 _1307_
*1326 _1308_
*1327 _1309_
*1328 _1310_
*1329 _1311_
*1330 _1312_
*1331 _1313_
*1332 _1314_
*1333 _1315_
*1334 _1316_
*1335 _1317_
*1336 _1318_
*1337 _1319_
*1338 _1320_
*1339 _1321_
*1340 _1322_
*1341 _1323_
*1342 _1324_
*1343 _1325_
*1344 _1326_
*1345 _1327_
*1346 _1328_
*1347 _1329_
*1348 _1330_
*1349 _1331_
*1350 _1332_
*1351 _1333_
*1352 _1334_
*1353 _1335_
*1354 _1336_
*1355 _1337_
*1356 _1338_
*1357 _1339_
*1358 _1340_
*1359 _1341_
*1360 _1342_
*1361 _1343_
*1362 _1344_
*1363 _1345_
*1364 _1346_
*1365 _1347_
*1366 _1348_
*1367 _1349_
*1368 _1350_
*1369 _1351_
*1370 _1352_
*1371 _1353_
*1372 _1354_
*1373 _1355_
*1374 _1356_
*1375 _1357_
*1376 _1358_
*1377 _1359_
*1378 _1360_
*1379 _1361_
*1380 _1362_
*1381 _1363_
*1382 _1364_
*1383 _1365_
*1384 _1366_
*1385 _1367_
*1386 _1368_
*1387 _1369_
*1388 _1370_
*1389 _1371_
*1390 _1372_
*1391 _1373_
*1392 _1374_
*1393 _1375_
*1394 _1376_
*1395 _1377_
*1396 _1378_
*1397 _1379_
*1398 _1380_
*1399 _1381_
*1400 _1382_
*1401 _1383_
*1402 _1384_
*1403 _1385_
*1404 _1386_
*1405 _1387_
*1406 _1388_
*1407 _1389_
*1408 net1
*1409 net10
*1410 net100
*1411 net101
*1412 net102
*1413 net103
*1414 net104
*1415 net105
*1416 net106
*1417 net107
*1418 net108
*1419 net109
*1420 net11
*1421 net110
*1422 net111
*1423 net112
*1424 net113
*1425 net114
*1426 net115
*1427 net116
*1428 net117
*1429 net118
*1430 net119
*1431 net12
*1432 net120
*1433 net121
*1434 net122
*1435 net123
*1436 net124
*1437 net125
*1438 net126
*1439 net127
*1440 net128
*1441 net129
*1442 net13
*1443 net130
*1444 net131
*1445 net132
*1446 net133
*1447 net134
*1448 net135
*1449 net136
*1450 net137
*1451 net138
*1452 net139
*1453 net14
*1454 net140
*1455 net141
*1456 net142
*1457 net143
*1458 net144
*1459 net145
*1460 net146
*1461 net147
*1462 net148
*1463 net149
*1464 net15
*1465 net150
*1466 net151
*1467 net152
*1468 net153
*1469 net154
*1470 net155
*1471 net156
*1472 net16
*1473 net17
*1474 net18
*1475 net19
*1476 net2
*1477 net20
*1478 net21
*1479 net22
*1480 net23
*1481 net24
*1482 net25
*1483 net26
*1484 net27
*1485 net28
*1486 net29
*1487 net3
*1488 net30
*1489 net31
*1490 net32
*1491 net33
*1492 net34
*1493 net35
*1494 net36
*1495 net37
*1496 net38
*1497 net39
*1498 net4
*1499 net40
*1500 net41
*1501 net42
*1502 net43
*1503 net44
*1504 net45
*1505 net46
*1506 net47
*1507 net48
*1508 net49
*1509 net5
*1510 net50
*1511 net51
*1512 net52
*1513 net53
*1514 net54
*1515 net55
*1516 net56
*1517 net57
*1518 net58
*1519 net59
*1520 net6
*1521 net60
*1522 net61
*1523 net62
*1524 net63
*1525 net64
*1526 net65
*1527 net66
*1528 net67
*1529 net68
*1530 net69
*1531 net7
*1532 net70
*1533 net71
*1534 net72
*1535 net73
*1536 net74
*1537 net75
*1538 net76
*1539 net77
*1540 net78
*1541 net79
*1542 net8
*1543 net80
*1544 net81
*1545 net82
*1546 net83
*1547 net84
*1548 net85
*1549 net86
*1550 net87
*1551 net88
*1552 net89
*1553 net9
*1554 net90
*1555 net91
*1556 net92
*1557 net93
*1558 net94
*1559 net95
*1560 net96
*1561 net97
*1562 net98
*1563 net99
*1564 u_arbiter\.i_wb_cpu_ack
*1565 u_arbiter\.i_wb_cpu_dbus_adr\[10\]
*1566 u_arbiter\.i_wb_cpu_dbus_adr\[11\]
*1567 u_arbiter\.i_wb_cpu_dbus_adr\[12\]
*1568 u_arbiter\.i_wb_cpu_dbus_adr\[13\]
*1569 u_arbiter\.i_wb_cpu_dbus_adr\[14\]
*1570 u_arbiter\.i_wb_cpu_dbus_adr\[15\]
*1571 u_arbiter\.i_wb_cpu_dbus_adr\[16\]
*1572 u_arbiter\.i_wb_cpu_dbus_adr\[17\]
*1573 u_arbiter\.i_wb_cpu_dbus_adr\[18\]
*1574 u_arbiter\.i_wb_cpu_dbus_adr\[19\]
*1575 u_arbiter\.i_wb_cpu_dbus_adr\[20\]
*1576 u_arbiter\.i_wb_cpu_dbus_adr\[21\]
*1577 u_arbiter\.i_wb_cpu_dbus_adr\[22\]
*1578 u_arbiter\.i_wb_cpu_dbus_adr\[23\]
*1579 u_arbiter\.i_wb_cpu_dbus_adr\[24\]
*1580 u_arbiter\.i_wb_cpu_dbus_adr\[25\]
*1581 u_arbiter\.i_wb_cpu_dbus_adr\[26\]
*1582 u_arbiter\.i_wb_cpu_dbus_adr\[27\]
*1583 u_arbiter\.i_wb_cpu_dbus_adr\[28\]
*1584 u_arbiter\.i_wb_cpu_dbus_adr\[29\]
*1585 u_arbiter\.i_wb_cpu_dbus_adr\[2\]
*1586 u_arbiter\.i_wb_cpu_dbus_adr\[30\]
*1587 u_arbiter\.i_wb_cpu_dbus_adr\[31\]
*1588 u_arbiter\.i_wb_cpu_dbus_adr\[3\]
*1589 u_arbiter\.i_wb_cpu_dbus_adr\[4\]
*1590 u_arbiter\.i_wb_cpu_dbus_adr\[5\]
*1591 u_arbiter\.i_wb_cpu_dbus_adr\[6\]
*1592 u_arbiter\.i_wb_cpu_dbus_adr\[7\]
*1593 u_arbiter\.i_wb_cpu_dbus_adr\[8\]
*1594 u_arbiter\.i_wb_cpu_dbus_adr\[9\]
*1595 u_arbiter\.i_wb_cpu_dbus_dat\[0\]
*1596 u_arbiter\.i_wb_cpu_dbus_dat\[10\]
*1597 u_arbiter\.i_wb_cpu_dbus_dat\[11\]
*1598 u_arbiter\.i_wb_cpu_dbus_dat\[12\]
*1599 u_arbiter\.i_wb_cpu_dbus_dat\[13\]
*1600 u_arbiter\.i_wb_cpu_dbus_dat\[14\]
*1601 u_arbiter\.i_wb_cpu_dbus_dat\[15\]
*1602 u_arbiter\.i_wb_cpu_dbus_dat\[16\]
*1603 u_arbiter\.i_wb_cpu_dbus_dat\[17\]
*1604 u_arbiter\.i_wb_cpu_dbus_dat\[18\]
*1605 u_arbiter\.i_wb_cpu_dbus_dat\[19\]
*1606 u_arbiter\.i_wb_cpu_dbus_dat\[1\]
*1607 u_arbiter\.i_wb_cpu_dbus_dat\[20\]
*1608 u_arbiter\.i_wb_cpu_dbus_dat\[21\]
*1609 u_arbiter\.i_wb_cpu_dbus_dat\[22\]
*1610 u_arbiter\.i_wb_cpu_dbus_dat\[23\]
*1611 u_arbiter\.i_wb_cpu_dbus_dat\[24\]
*1612 u_arbiter\.i_wb_cpu_dbus_dat\[25\]
*1613 u_arbiter\.i_wb_cpu_dbus_dat\[26\]
*1614 u_arbiter\.i_wb_cpu_dbus_dat\[27\]
*1615 u_arbiter\.i_wb_cpu_dbus_dat\[28\]
*1616 u_arbiter\.i_wb_cpu_dbus_dat\[29\]
*1617 u_arbiter\.i_wb_cpu_dbus_dat\[2\]
*1618 u_arbiter\.i_wb_cpu_dbus_dat\[30\]
*1619 u_arbiter\.i_wb_cpu_dbus_dat\[31\]
*1620 u_arbiter\.i_wb_cpu_dbus_dat\[3\]
*1621 u_arbiter\.i_wb_cpu_dbus_dat\[4\]
*1622 u_arbiter\.i_wb_cpu_dbus_dat\[5\]
*1623 u_arbiter\.i_wb_cpu_dbus_dat\[6\]
*1624 u_arbiter\.i_wb_cpu_dbus_dat\[7\]
*1625 u_arbiter\.i_wb_cpu_dbus_dat\[8\]
*1626 u_arbiter\.i_wb_cpu_dbus_dat\[9\]
*1627 u_arbiter\.i_wb_cpu_dbus_sel\[0\]
*1628 u_arbiter\.i_wb_cpu_dbus_sel\[1\]
*1629 u_arbiter\.i_wb_cpu_dbus_sel\[2\]
*1630 u_arbiter\.i_wb_cpu_dbus_sel\[3\]
*1631 u_arbiter\.i_wb_cpu_dbus_we
*1632 u_arbiter\.i_wb_cpu_ibus_adr\[0\]
*1633 u_arbiter\.i_wb_cpu_ibus_adr\[1\]
*1634 u_arbiter\.i_wb_cpu_rdt\[0\]
*1635 u_arbiter\.i_wb_cpu_rdt\[10\]
*1636 u_arbiter\.i_wb_cpu_rdt\[11\]
*1637 u_arbiter\.i_wb_cpu_rdt\[12\]
*1638 u_arbiter\.i_wb_cpu_rdt\[13\]
*1639 u_arbiter\.i_wb_cpu_rdt\[14\]
*1640 u_arbiter\.i_wb_cpu_rdt\[15\]
*1641 u_arbiter\.i_wb_cpu_rdt\[16\]
*1642 u_arbiter\.i_wb_cpu_rdt\[17\]
*1643 u_arbiter\.i_wb_cpu_rdt\[18\]
*1644 u_arbiter\.i_wb_cpu_rdt\[19\]
*1645 u_arbiter\.i_wb_cpu_rdt\[1\]
*1646 u_arbiter\.i_wb_cpu_rdt\[20\]
*1647 u_arbiter\.i_wb_cpu_rdt\[21\]
*1648 u_arbiter\.i_wb_cpu_rdt\[22\]
*1649 u_arbiter\.i_wb_cpu_rdt\[23\]
*1650 u_arbiter\.i_wb_cpu_rdt\[24\]
*1651 u_arbiter\.i_wb_cpu_rdt\[25\]
*1652 u_arbiter\.i_wb_cpu_rdt\[26\]
*1653 u_arbiter\.i_wb_cpu_rdt\[27\]
*1654 u_arbiter\.i_wb_cpu_rdt\[28\]
*1655 u_arbiter\.i_wb_cpu_rdt\[29\]
*1656 u_arbiter\.i_wb_cpu_rdt\[2\]
*1657 u_arbiter\.i_wb_cpu_rdt\[30\]
*1658 u_arbiter\.i_wb_cpu_rdt\[31\]
*1659 u_arbiter\.i_wb_cpu_rdt\[3\]
*1660 u_arbiter\.i_wb_cpu_rdt\[4\]
*1661 u_arbiter\.i_wb_cpu_rdt\[5\]
*1662 u_arbiter\.i_wb_cpu_rdt\[6\]
*1663 u_arbiter\.i_wb_cpu_rdt\[7\]
*1664 u_arbiter\.i_wb_cpu_rdt\[8\]
*1665 u_arbiter\.i_wb_cpu_rdt\[9\]
*1666 u_arbiter\.o_wb_cpu_adr\[0\]
*1667 u_arbiter\.o_wb_cpu_adr\[10\]
*1668 u_arbiter\.o_wb_cpu_adr\[11\]
*1669 u_arbiter\.o_wb_cpu_adr\[12\]
*1670 u_arbiter\.o_wb_cpu_adr\[13\]
*1671 u_arbiter\.o_wb_cpu_adr\[14\]
*1672 u_arbiter\.o_wb_cpu_adr\[15\]
*1673 u_arbiter\.o_wb_cpu_adr\[16\]
*1674 u_arbiter\.o_wb_cpu_adr\[17\]
*1675 u_arbiter\.o_wb_cpu_adr\[18\]
*1676 u_arbiter\.o_wb_cpu_adr\[19\]
*1677 u_arbiter\.o_wb_cpu_adr\[1\]
*1678 u_arbiter\.o_wb_cpu_adr\[20\]
*1679 u_arbiter\.o_wb_cpu_adr\[21\]
*1680 u_arbiter\.o_wb_cpu_adr\[22\]
*1681 u_arbiter\.o_wb_cpu_adr\[23\]
*1682 u_arbiter\.o_wb_cpu_adr\[24\]
*1683 u_arbiter\.o_wb_cpu_adr\[25\]
*1684 u_arbiter\.o_wb_cpu_adr\[26\]
*1685 u_arbiter\.o_wb_cpu_adr\[27\]
*1686 u_arbiter\.o_wb_cpu_adr\[28\]
*1687 u_arbiter\.o_wb_cpu_adr\[29\]
*1688 u_arbiter\.o_wb_cpu_adr\[2\]
*1689 u_arbiter\.o_wb_cpu_adr\[30\]
*1690 u_arbiter\.o_wb_cpu_adr\[31\]
*1691 u_arbiter\.o_wb_cpu_adr\[3\]
*1692 u_arbiter\.o_wb_cpu_adr\[4\]
*1693 u_arbiter\.o_wb_cpu_adr\[5\]
*1694 u_arbiter\.o_wb_cpu_adr\[6\]
*1695 u_arbiter\.o_wb_cpu_adr\[7\]
*1696 u_arbiter\.o_wb_cpu_adr\[8\]
*1697 u_arbiter\.o_wb_cpu_adr\[9\]
*1698 u_arbiter\.o_wb_cpu_cyc
*1699 u_arbiter\.o_wb_cpu_we
*1700 u_cpu\.cpu\.alu\.add_cy_r
*1701 u_cpu\.cpu\.alu\.cmp_r
*1702 u_cpu\.cpu\.alu\.i_rs1
*1703 u_cpu\.cpu\.bne_or_bge
*1704 u_cpu\.cpu\.branch_op
*1705 u_cpu\.cpu\.bufreg\.c_r
*1706 u_cpu\.cpu\.bufreg\.i_sh_signed
*1707 u_cpu\.cpu\.bufreg\.lsb\[0\]
*1708 u_cpu\.cpu\.bufreg\.lsb\[1\]
*1709 u_cpu\.cpu\.bufreg2\.i_cnt_done
*1710 u_cpu\.cpu\.csr_d_sel
*1711 u_cpu\.cpu\.csr_imm
*1712 u_cpu\.cpu\.ctrl\.i_iscomp
*1713 u_cpu\.cpu\.ctrl\.i_jump
*1714 u_cpu\.cpu\.ctrl\.o_ibus_adr\[10\]
*1715 u_cpu\.cpu\.ctrl\.o_ibus_adr\[11\]
*1716 u_cpu\.cpu\.ctrl\.o_ibus_adr\[12\]
*1717 u_cpu\.cpu\.ctrl\.o_ibus_adr\[13\]
*1718 u_cpu\.cpu\.ctrl\.o_ibus_adr\[14\]
*1719 u_cpu\.cpu\.ctrl\.o_ibus_adr\[15\]
*1720 u_cpu\.cpu\.ctrl\.o_ibus_adr\[16\]
*1721 u_cpu\.cpu\.ctrl\.o_ibus_adr\[17\]
*1722 u_cpu\.cpu\.ctrl\.o_ibus_adr\[18\]
*1723 u_cpu\.cpu\.ctrl\.o_ibus_adr\[19\]
*1724 u_cpu\.cpu\.ctrl\.o_ibus_adr\[20\]
*1725 u_cpu\.cpu\.ctrl\.o_ibus_adr\[21\]
*1726 u_cpu\.cpu\.ctrl\.o_ibus_adr\[22\]
*1727 u_cpu\.cpu\.ctrl\.o_ibus_adr\[23\]
*1728 u_cpu\.cpu\.ctrl\.o_ibus_adr\[24\]
*1729 u_cpu\.cpu\.ctrl\.o_ibus_adr\[25\]
*1730 u_cpu\.cpu\.ctrl\.o_ibus_adr\[26\]
*1731 u_cpu\.cpu\.ctrl\.o_ibus_adr\[27\]
*1732 u_cpu\.cpu\.ctrl\.o_ibus_adr\[28\]
*1733 u_cpu\.cpu\.ctrl\.o_ibus_adr\[29\]
*1734 u_cpu\.cpu\.ctrl\.o_ibus_adr\[2\]
*1735 u_cpu\.cpu\.ctrl\.o_ibus_adr\[30\]
*1736 u_cpu\.cpu\.ctrl\.o_ibus_adr\[31\]
*1737 u_cpu\.cpu\.ctrl\.o_ibus_adr\[3\]
*1738 u_cpu\.cpu\.ctrl\.o_ibus_adr\[4\]
*1739 u_cpu\.cpu\.ctrl\.o_ibus_adr\[5\]
*1740 u_cpu\.cpu\.ctrl\.o_ibus_adr\[6\]
*1741 u_cpu\.cpu\.ctrl\.o_ibus_adr\[7\]
*1742 u_cpu\.cpu\.ctrl\.o_ibus_adr\[8\]
*1743 u_cpu\.cpu\.ctrl\.o_ibus_adr\[9\]
*1744 u_cpu\.cpu\.ctrl\.pc_plus_4_cy_r
*1745 u_cpu\.cpu\.ctrl\.pc_plus_offset_cy_r
*1746 u_cpu\.cpu\.decode\.co_ebreak
*1747 u_cpu\.cpu\.decode\.co_mem_word
*1748 u_cpu\.cpu\.decode\.op21
*1749 u_cpu\.cpu\.decode\.op22
*1750 u_cpu\.cpu\.decode\.op26
*1751 u_cpu\.cpu\.decode\.opcode\[0\]
*1752 u_cpu\.cpu\.decode\.opcode\[1\]
*1753 u_cpu\.cpu\.decode\.opcode\[2\]
*1754 u_cpu\.cpu\.genblk1\.align\.ctrl_misal
*1755 u_cpu\.cpu\.genblk1\.align\.ibus_rdt_concat\[0\]
*1756 u_cpu\.cpu\.genblk1\.align\.ibus_rdt_concat\[10\]
*1757 u_cpu\.cpu\.genblk1\.align\.ibus_rdt_concat\[11\]
*1758 u_cpu\.cpu\.genblk1\.align\.ibus_rdt_concat\[12\]
*1759 u_cpu\.cpu\.genblk1\.align\.ibus_rdt_concat\[13\]
*1760 u_cpu\.cpu\.genblk1\.align\.ibus_rdt_concat\[14\]
*1761 u_cpu\.cpu\.genblk1\.align\.ibus_rdt_concat\[15\]
*1762 u_cpu\.cpu\.genblk1\.align\.ibus_rdt_concat\[1\]
*1763 u_cpu\.cpu\.genblk1\.align\.ibus_rdt_concat\[2\]
*1764 u_cpu\.cpu\.genblk1\.align\.ibus_rdt_concat\[3\]
*1765 u_cpu\.cpu\.genblk1\.align\.ibus_rdt_concat\[4\]
*1766 u_cpu\.cpu\.genblk1\.align\.ibus_rdt_concat\[5\]
*1767 u_cpu\.cpu\.genblk1\.align\.ibus_rdt_concat\[6\]
*1768 u_cpu\.cpu\.genblk1\.align\.ibus_rdt_concat\[7\]
*1769 u_cpu\.cpu\.genblk1\.align\.ibus_rdt_concat\[8\]
*1770 u_cpu\.cpu\.genblk1\.align\.ibus_rdt_concat\[9\]
*1771 u_cpu\.cpu\.genblk3\.csr\.i_mtip
*1772 u_cpu\.cpu\.genblk3\.csr\.mcause31
*1773 u_cpu\.cpu\.genblk3\.csr\.mcause3_0\[0\]
*1774 u_cpu\.cpu\.genblk3\.csr\.mcause3_0\[1\]
*1775 u_cpu\.cpu\.genblk3\.csr\.mcause3_0\[2\]
*1776 u_cpu\.cpu\.genblk3\.csr\.mcause3_0\[3\]
*1777 u_cpu\.cpu\.genblk3\.csr\.mie_mtie
*1778 u_cpu\.cpu\.genblk3\.csr\.mstatus_mie
*1779 u_cpu\.cpu\.genblk3\.csr\.mstatus_mpie
*1780 u_cpu\.cpu\.genblk3\.csr\.o_new_irq
*1781 u_cpu\.cpu\.genblk3\.csr\.timer_irq_r
*1782 u_cpu\.cpu\.immdec\.imm11_7\[0\]
*1783 u_cpu\.cpu\.immdec\.imm11_7\[1\]
*1784 u_cpu\.cpu\.immdec\.imm11_7\[2\]
*1785 u_cpu\.cpu\.immdec\.imm11_7\[3\]
*1786 u_cpu\.cpu\.immdec\.imm11_7\[4\]
*1787 u_cpu\.cpu\.immdec\.imm19_12_20\[0\]
*1788 u_cpu\.cpu\.immdec\.imm19_12_20\[1\]
*1789 u_cpu\.cpu\.immdec\.imm19_12_20\[2\]
*1790 u_cpu\.cpu\.immdec\.imm19_12_20\[3\]
*1791 u_cpu\.cpu\.immdec\.imm19_12_20\[5\]
*1792 u_cpu\.cpu\.immdec\.imm19_12_20\[6\]
*1793 u_cpu\.cpu\.immdec\.imm19_12_20\[7\]
*1794 u_cpu\.cpu\.immdec\.imm19_12_20\[8\]
*1795 u_cpu\.cpu\.immdec\.imm24_20\[0\]
*1796 u_cpu\.cpu\.immdec\.imm24_20\[1\]
*1797 u_cpu\.cpu\.immdec\.imm24_20\[2\]
*1798 u_cpu\.cpu\.immdec\.imm24_20\[3\]
*1799 u_cpu\.cpu\.immdec\.imm24_20\[4\]
*1800 u_cpu\.cpu\.immdec\.imm30_25\[0\]
*1801 u_cpu\.cpu\.immdec\.imm30_25\[1\]
*1802 u_cpu\.cpu\.immdec\.imm30_25\[2\]
*1803 u_cpu\.cpu\.immdec\.imm30_25\[3\]
*1804 u_cpu\.cpu\.immdec\.imm30_25\[4\]
*1805 u_cpu\.cpu\.immdec\.imm30_25\[5\]
*1806 u_cpu\.cpu\.immdec\.imm31
*1807 u_cpu\.cpu\.immdec\.imm7
*1808 u_cpu\.cpu\.mem_bytecnt\[0\]
*1809 u_cpu\.cpu\.mem_bytecnt\[1\]
*1810 u_cpu\.cpu\.mem_if\.signbit
*1811 u_cpu\.cpu\.o_wdata0
*1812 u_cpu\.cpu\.o_wdata1
*1813 u_cpu\.cpu\.o_wen0
*1814 u_cpu\.cpu\.o_wen1
*1815 u_cpu\.cpu\.state\.genblk1\.misalign_trap_sync_r
*1816 u_cpu\.cpu\.state\.ibus_cyc
*1817 u_cpu\.cpu\.state\.init_done
*1818 u_cpu\.cpu\.state\.o_cnt\[2\]
*1819 u_cpu\.cpu\.state\.o_cnt_r\[0\]
*1820 u_cpu\.cpu\.state\.o_cnt_r\[1\]
*1821 u_cpu\.cpu\.state\.o_cnt_r\[2\]
*1822 u_cpu\.cpu\.state\.o_cnt_r\[3\]
*1823 u_cpu\.cpu\.state\.stage_two_req
*1824 u_cpu\.raddr\[0\]
*1825 u_cpu\.raddr\[1\]
*1826 u_cpu\.rf_ram\.addr\[0\]
*1827 u_cpu\.rf_ram\.addr\[1\]
*1828 u_cpu\.rf_ram\.addr\[2\]
*1829 u_cpu\.rf_ram\.addr\[3\]
*1830 u_cpu\.rf_ram\.addr\[4\]
*1831 u_cpu\.rf_ram\.addr\[5\]
*1832 u_cpu\.rf_ram\.addr\[6\]
*1833 u_cpu\.rf_ram\.addr\[7\]
*1834 u_cpu\.rf_ram\.data\[0\]
*1835 u_cpu\.rf_ram\.data\[1\]
*1836 u_cpu\.rf_ram\.data\[2\]