*SPEF "ieee 1481-1999"
*DESIGN "tiny_user_project"
*DATE "11:11:11 Fri 11 11, 1111"
*VENDOR "OpenRCX"
*PROGRAM "Parallel Extraction"
*VERSION "1.0"
*DESIGN_FLOW "NAME_SCOPE LOCAL" "PIN_CAP NONE"
*DIVIDER /
*DELIMITER :
*BUS_DELIMITER []
*T_UNIT 1 NS
*C_UNIT 1 PF
*R_UNIT 1 OHM
*L_UNIT 1 HENRY

*NAME_MAP
*1 io_in[0]
*2 io_in[10]
*3 io_in[11]
*4 io_in[12]
*5 io_in[13]
*6 io_in[14]
*7 io_in[15]
*8 io_in[16]
*9 io_in[17]
*10 io_in[18]
*11 io_in[19]
*12 io_in[1]
*13 io_in[20]
*14 io_in[21]
*15 io_in[22]
*16 io_in[23]
*17 io_in[24]
*18 io_in[25]
*19 io_in[26]
*20 io_in[27]
*21 io_in[28]
*22 io_in[29]
*23 io_in[2]
*24 io_in[30]
*25 io_in[31]
*26 io_in[32]
*27 io_in[33]
*28 io_in[34]
*29 io_in[35]
*30 io_in[36]
*31 io_in[37]
*32 io_in[3]
*33 io_in[4]
*34 io_in[5]
*35 io_in[6]
*36 io_in[7]
*37 io_in[8]
*38 io_in[9]
*39 net8
*40 net18
*41 net19
*42 net20
*43 net21
*44 net22
*45 net23
*46 net24
*47 net25
*48 net26
*49 net27
*50 net9
*51 net28
*52 net29
*53 net30
*54 net31
*55 net32
*56 net33
*57 net34
*58 net35
*59 net36
*60 net37
*61 net10
*62 net38
*63 net39
*64 net40
*65 net41
*66 net42
*67 net43
*68 net44
*69 net45
*70 net11
*71 net12
*72 net13
*73 net14
*74 net15
*75 net16
*76 net17
*77 net46
*78 net56
*79 net57
*80 net58
*81 net59
*82 net60
*83 net61
*84 io_out[16]
*85 io_out[17]
*86 io_out[18]
*87 net62
*88 net47
*89 net63
*90 net64
*91 net65
*92 net66
*93 net67
*94 net68
*95 net69
*96 net70
*97 net71
*98 net72
*99 net48
*100 net73
*101 net74
*102 net75
*103 net76
*104 net77
*105 net78
*106 net79
*107 net80
*108 net49
*109 net50
*110 net51
*111 net52
*112 net53
*113 net54
*114 net55
*115 la_data_in[0]
*116 la_data_in[10]
*117 la_data_in[11]
*118 la_data_in[12]
*119 la_data_in[13]
*120 la_data_in[14]
*121 la_data_in[15]
*122 la_data_in[16]
*123 la_data_in[17]
*124 la_data_in[18]
*125 la_data_in[19]
*126 la_data_in[1]
*127 la_data_in[20]
*128 la_data_in[21]
*129 la_data_in[22]
*130 la_data_in[23]
*131 la_data_in[24]
*132 la_data_in[25]
*133 la_data_in[26]
*134 la_data_in[27]
*135 la_data_in[28]
*136 la_data_in[29]
*137 la_data_in[2]
*138 la_data_in[30]
*139 la_data_in[31]
*140 la_data_in[32]
*141 la_data_in[33]
*142 la_data_in[34]
*143 la_data_in[35]
*144 la_data_in[36]
*145 la_data_in[37]
*146 la_data_in[38]
*147 la_data_in[39]
*148 la_data_in[3]
*149 la_data_in[40]
*150 la_data_in[41]
*151 la_data_in[42]
*152 la_data_in[43]
*153 la_data_in[44]
*154 la_data_in[45]
*155 la_data_in[46]
*156 la_data_in[47]
*157 la_data_in[48]
*158 la_data_in[49]
*159 la_data_in[4]
*160 la_data_in[50]
*161 la_data_in[51]
*162 la_data_in[52]
*163 la_data_in[53]
*164 la_data_in[54]
*165 la_data_in[55]
*166 la_data_in[56]
*167 la_data_in[57]
*168 la_data_in[58]
*169 la_data_in[59]
*170 la_data_in[5]
*171 la_data_in[60]
*172 la_data_in[61]
*173 la_data_in[62]
*174 la_data_in[63]
*175 la_data_in[6]
*176 la_data_in[7]
*177 la_data_in[8]
*178 la_data_in[9]
*179 net81
*180 net91
*181 net92
*182 net93
*183 net94
*184 net95
*185 net96
*186 net97
*187 net98
*188 net99
*189 net100
*190 net82
*191 net101
*192 net102
*193 net103
*194 net104
*195 net105
*196 net106
*197 net107
*198 net108
*199 net109
*200 net110
*201 net83
*202 net111
*203 net112
*204 net113
*205 net114
*206 net115
*207 net116
*208 net117
*209 net118
*210 net119
*211 net120
*212 net84
*213 net121
*214 net122
*215 net123
*216 net124
*217 net125
*218 net126
*219 net127
*220 net128
*221 net129
*222 net130
*223 net85
*224 net131
*225 net132
*226 net133
*227 net134
*228 net135
*229 net136
*230 net137
*231 net138
*232 net139
*233 net140
*234 net86
*235 net141
*236 net142
*237 net143
*238 net144
*239 net87
*240 net88
*241 net89
*242 net90
*243 la_oenb[0]
*244 la_oenb[10]
*245 la_oenb[11]
*246 la_oenb[12]
*247 la_oenb[13]
*248 la_oenb[14]
*249 la_oenb[15]
*250 la_oenb[16]
*251 la_oenb[17]
*252 la_oenb[18]
*253 la_oenb[19]
*254 la_oenb[1]
*255 la_oenb[20]
*256 la_oenb[21]
*257 la_oenb[22]
*258 la_oenb[23]
*259 la_oenb[24]
*260 la_oenb[25]
*261 la_oenb[26]
*262 la_oenb[27]
*263 la_oenb[28]
*264 la_oenb[29]
*265 la_oenb[2]
*266 la_oenb[30]
*267 la_oenb[31]
*268 la_oenb[32]
*269 la_oenb[33]
*270 la_oenb[34]
*271 la_oenb[35]
*272 la_oenb[36]
*273 la_oenb[37]
*274 la_oenb[38]
*275 la_oenb[39]
*276 la_oenb[3]
*277 la_oenb[40]
*278 la_oenb[41]
*279 la_oenb[42]
*280 la_oenb[43]
*281 la_oenb[44]
*282 la_oenb[45]
*283 la_oenb[46]
*284 la_oenb[47]
*285 la_oenb[48]
*286 la_oenb[49]
*287 la_oenb[4]
*288 la_oenb[50]
*289 la_oenb[51]
*290 la_oenb[52]
*291 la_oenb[53]
*292 la_oenb[54]
*293 la_oenb[55]
*294 la_oenb[56]
*295 la_oenb[57]
*296 la_oenb[58]
*297 la_oenb[59]
*298 la_oenb[5]
*299 la_oenb[60]
*300 la_oenb[61]
*301 la_oenb[62]
*302 la_oenb[63]
*303 la_oenb[6]
*304 la_oenb[7]
*305 la_oenb[8]
*306 la_oenb[9]
*307 user_clock2
*308 net145
*309 net146
*310 net147
*313 wb_clk_i
*314 wb_rst_i
*315 net148
*316 wbs_adr_i[0]
*317 wbs_adr_i[10]
*318 wbs_adr_i[11]
*319 wbs_adr_i[12]
*320 wbs_adr_i[13]
*321 wbs_adr_i[14]
*322 wbs_adr_i[15]
*323 wbs_adr_i[16]
*324 wbs_adr_i[17]
*325 wbs_adr_i[18]
*326 wbs_adr_i[19]
*327 wbs_adr_i[1]
*328 wbs_adr_i[20]
*329 wbs_adr_i[21]
*330 wbs_adr_i[22]
*331 wbs_adr_i[23]
*332 wbs_adr_i[24]
*333 wbs_adr_i[25]
*334 wbs_adr_i[26]
*335 wbs_adr_i[27]
*336 wbs_adr_i[28]
*337 wbs_adr_i[29]
*338 wbs_adr_i[2]
*339 wbs_adr_i[30]
*340 wbs_adr_i[31]
*341 wbs_adr_i[3]
*342 wbs_adr_i[4]
*343 wbs_adr_i[5]
*344 wbs_adr_i[6]
*345 wbs_adr_i[7]
*346 wbs_adr_i[8]
*347 wbs_adr_i[9]
*348 wbs_cyc_i
*349 wbs_dat_i[0]
*350 wbs_dat_i[10]
*351 wbs_dat_i[11]
*352 wbs_dat_i[12]
*353 wbs_dat_i[13]
*354 wbs_dat_i[14]
*355 wbs_dat_i[15]
*356 wbs_dat_i[16]
*357 wbs_dat_i[17]
*358 wbs_dat_i[18]
*359 wbs_dat_i[19]
*360 wbs_dat_i[1]
*361 wbs_dat_i[20]
*362 wbs_dat_i[21]
*363 wbs_dat_i[22]
*364 wbs_dat_i[23]
*365 wbs_dat_i[24]
*366 wbs_dat_i[25]
*367 wbs_dat_i[26]
*368 wbs_dat_i[27]
*369 wbs_dat_i[28]
*370 wbs_dat_i[29]
*371 wbs_dat_i[2]
*372 wbs_dat_i[30]
*373 wbs_dat_i[31]
*374 wbs_dat_i[3]
*375 wbs_dat_i[4]
*376 wbs_dat_i[5]
*377 wbs_dat_i[6]
*378 wbs_dat_i[7]
*379 wbs_dat_i[8]
*380 wbs_dat_i[9]
*381 net149
*382 net159
*383 net160
*384 net161
*385 net162
*386 net163
*387 net164
*388 net165
*389 net166
*390 net167
*391 net168
*392 net150
*393 net169
*394 net170
*395 net171
*396 net172
*397 net173
*398 net174
*399 net175
*400 net176
*401 net177
*402 net178
*403 net151
*404 net179
*405 net180
*406 net152
*407 net153
*408 net154
*409 net155
*410 net156
*411 net157
*412 net158
*413 wbs_sel_i[0]
*414 wbs_sel_i[1]
*415 wbs_sel_i[2]
*416 wbs_sel_i[3]
*417 wbs_stb_i
*418 wbs_we_i
*419 _0000_
*420 _0001_
*421 _0002_
*422 _0003_
*423 _0004_
*424 _0005_
*425 _0006_
*426 _0007_
*427 _0008_
*428 _0009_
*429 _0010_
*430 _0011_
*431 _0012_
*432 _0013_
*433 _0014_
*434 _0015_
*435 _0016_
*436 _0017_
*437 _0018_
*438 _0019_
*439 _0020_
*440 _0021_
*441 _0022_
*442 _0023_
*443 _0024_
*444 _0025_
*445 _0026_
*446 _0027_
*447 _0028_
*448 _0029_
*449 _0030_
*450 _0031_
*451 _0032_
*452 _0033_
*453 _0034_
*454 _0035_
*455 _0036_
*456 _0037_
*457 _0038_
*458 _0039_
*459 _0040_
*460 _0041_
*461 _0042_
*462 _0043_
*463 _0044_
*464 _0045_
*465 _0046_
*466 _0047_
*467 _0048_
*468 _0049_
*469 _0050_
*470 _0051_
*471 _0052_
*472 _0053_
*473 _0054_
*474 _0055_
*475 _0056_
*476 _0057_
*477 _0058_
*478 _0059_
*479 _0060_
*480 _0061_
*481 _0062_
*482 _0063_
*483 _0064_
*484 _0065_
*485 _0066_
*486 _0067_
*487 _0068_
*488 _0069_
*489 _0070_
*490 _0071_
*491 _0072_
*492 _0073_
*493 _0074_
*494 _0075_
*495 _0076_
*496 _0077_
*497 _0078_
*498 _0079_
*499 _0080_
*500 _0081_
*501 _0082_
*502 _0083_
*503 _0084_
*504 _0085_
*505 _0086_
*506 _0087_
*507 _0088_
*508 _0089_
*509 _0090_
*510 _0091_
*511 _0092_
*512 _0093_
*513 _0094_
*514 _0095_
*515 _0096_
*516 _0097_
*517 _0098_
*518 _0099_
*519 _0100_
*520 _0101_
*521 _0102_
*522 _0103_
*523 _0104_
*524 _0105_
*525 _0106_
*526 _0107_
*527 _0108_
*528 _0109_
*529 _0110_
*530 _0111_
*531 _0112_
*532 _0113_
*533 _0114_
*534 _0115_
*535 _0116_
*536 _0117_
*537 _0118_
*538 _0119_
*539 _0120_
*540 _0121_
*541 _0122_
*542 _0123_
*543 _0124_
*544 _0125_
*545 _0126_
*546 _0127_
*547 _0128_
*548 _0129_
*549 _0130_
*550 _0131_
*551 _0132_
*552 _0133_
*553 _0134_
*554 _0135_
*555 _0136_
*556 _0137_
*557 _0138_
*558 _0139_
*559 _0140_
*560 _0141_
*561 _0142_
*562 _0143_
*563 _0144_
*564 _0145_
*565 _0146_
*566 _0147_
*567 _0148_
*568 _0149_
*569 _0150_
*570 _0151_
*571 _0152_
*572 _0153_
*573 _0154_
*574 _0155_
*575 _0156_
*576 _0157_
*577 _0158_
*578 _0159_
*579 _0160_
*580 _0161_
*581 _0162_
*582 _0163_
*583 _0164_
*584 _0165_
*585 _0166_
*586 _0167_
*587 _0168_
*588 _0169_
*589 _0170_
*590 _0171_
*591 _0172_
*592 _0173_
*593 _0174_
*594 _0175_
*595 _0176_
*596 _0177_
*597 _0178_
*598 _0179_
*599 _0180_
*600 _0181_
*601 _0182_
*602 _0183_
*603 _0184_
*604 _0185_
*605 _0186_
*606 _0187_
*607 _0188_
*608 _0189_
*609 _0190_
*610 _0191_
*611 _0192_
*612 _0193_
*613 _0194_
*614 _0195_
*615 _0196_
*616 _0197_
*617 _0198_
*618 _0199_
*619 _0200_
*620 _0201_
*621 _0202_
*622 _0203_
*623 _0204_
*624 _0205_
*625 _0206_
*626 _0207_
*627 _0208_
*628 _0209_
*629 _0210_
*630 _0211_
*631 _0212_
*632 _0213_
*633 _0214_
*634 _0215_
*635 _0216_
*636 _0217_
*637 _0218_
*638 _0219_
*639 _0220_
*640 _0221_
*641 _0222_
*642 _0223_
*643 _0224_
*644 _0225_
*645 _0226_
*646 _0227_
*647 _0228_
*648 _0229_
*649 _0230_
*650 _0231_
*651 _0232_
*652 _0233_
*653 _0234_
*654 _0235_
*655 _0236_
*656 _0237_
*657 _0238_
*658 _0239_
*659 _0240_
*660 _0241_
*661 _0242_
*662 _0243_
*663 _0244_
*664 _0245_
*665 _0246_
*666 _0247_
*667 _0248_
*668 _0249_
*669 _0250_
*670 _0251_
*671 _0252_
*672 _0253_
*673 _0254_
*674 _0255_
*675 _0256_
*676 _0257_
*677 _0258_
*678 _0259_
*679 _0260_
*680 _0261_
*681 _0262_
*682 _0263_
*683 _0264_
*684 _0265_
*685 _0266_
*686 _0267_
*687 _0268_
*688 _0269_
*689 _0270_
*690 _0271_
*691 _0272_
*692 _0273_
*693 _0274_
*694 _0275_
*695 _0276_
*696 _0277_
*697 _0278_
*698 _0279_
*699 _0280_
*700 _0281_
*701 _0282_
*702 _0283_
*703 _0284_
*704 _0285_
*705 _0286_
*706 _0287_
*707 _0288_
*708 _0289_
*709 _0290_
*710 _0291_
*711 _0292_
*712 _0293_
*713 _0294_
*714 _0295_
*715 _0296_
*716 _0297_
*717 _0298_
*718 _0299_
*719 _0300_
*720 _0301_
*721 _0302_
*722 _0303_
*723 _0304_
*724 _0305_
*725 _0306_
*726 _0307_
*727 _0308_
*728 _0309_
*729 _0310_
*730 _0311_
*731 _0312_
*732 _0313_
*733 _0314_
*734 _0315_
*735 _0316_
*736 _0317_
*737 _0318_
*738 _0319_
*739 _0320_
*740 _0321_
*741 _0322_
*742 _0323_
*743 _0324_
*744 _0325_
*745 _0326_
*746 _0327_
*747 _0328_
*748 _0329_
*749 _0330_
*750 _0331_
*751 _0332_
*752 _0333_
*753 _0334_
*754 _0335_
*755 _0336_
*756 _0337_
*757 _0338_
*758 _0339_
*759 _0340_
*760 _0341_
*761 _0342_
*762 _0343_
*763 _0344_
*764 _0345_
*765 _0346_
*766 _0347_
*767 _0348_
*768 _0349_
*769 _0350_
*770 _0351_
*771 _0352_
*772 _0353_
*773 _0354_
*774 _0355_
*775 _0356_
*776 _0357_
*777 _0358_
*778 _0359_
*779 _0360_
*780 _0361_
*781 _0362_
*782 _0363_
*783 _0364_
*784 _0365_
*785 _0366_
*786 _0367_
*787 _0368_
*788 _0369_
*789 _0370_
*790 _0371_
*791 _0372_
*792 _0373_
*793 _0374_
*794 _0375_
*795 _0376_
*796 _0377_
*797 _0378_
*798 _0379_
*799 _0380_
*800 _0381_
*801 _0382_
*802 _0383_
*803 _0384_
*804 _0385_
*805 _0386_
*806 _0387_
*807 _0388_
*808 _0389_
*809 _0390_
*810 _0391_
*811 _0392_
*812 _0393_
*813 _0394_
*814 _0395_
*815 _0396_
*816 _0397_
*817 _0398_
*818 _0399_
*819 _0400_
*820 _0401_
*821 _0402_
*822 _0403_
*823 _0404_
*824 _0405_
*825 _0406_
*826 _0407_
*827 _0408_
*828 _0409_
*829 _0410_
*830 _0411_
*831 _0412_
*832 _0413_
*833 _0414_
*834 _0415_
*835 _0416_
*836 _0417_
*837 _0418_
*838 _0419_
*839 _0420_
*840 _0421_
*841 _0422_
*842 _0423_
*843 _0424_
*844 _0425_
*845 _0426_
*846 _0427_
*847 _0428_
*848 _0429_
*849 _0430_
*850 _0431_
*851 _0432_
*852 _0433_
*853 _0434_
*854 _0435_
*855 _0436_
*856 _0437_
*857 _0438_
*858 _0439_
*859 _0440_
*860 _0441_
*861 _0442_
*862 _0443_
*863 _0444_
*864 _0445_
*865 _0446_
*866 _0447_
*867 _0448_
*868 _0449_
*869 _0450_
*870 _0451_
*871 _0452_
*872 _0453_
*873 _0454_
*874 _0455_
*875 _0456_
*876 _0457_
*877 _0458_
*878 _0459_
*879 _0460_
*880 _0461_
*881 _0462_
*882 _0463_
*883 _0464_
*884 _0465_
*885 _0466_
*886 _0467_
*887 _0468_
*888 _0469_
*889 _0470_
*890 _0471_
*891 _0472_
*892 _0473_
*893 _0474_
*894 _0475_
*895 _0476_
*896 _0477_
*897 _0478_
*898 _0479_
*899 _0480_
*900 _0481_
*901 _0482_
*902 _0483_
*903 _0484_
*904 _0485_
*905 _0486_
*906 _0487_
*907 _0488_
*908 _0489_
*909 _0490_
*910 _0491_
*911 _0492_
*912 _0493_
*913 _0494_
*914 _0495_
*915 _0496_
*916 _0497_
*917 _0498_
*918 _0499_
*919 _0500_
*920 _0501_
*921 _0502_
*922 _0503_
*923 _0504_
*924 _0505_
*925 _0506_
*926 _0507_
*927 _0508_
*928 _0509_
*929 _0510_
*930 _0511_
*931 _0512_
*932 _0513_
*933 _0514_
*934 _0515_
*935 _0516_
*936 _0517_
*937 _0518_
*938 _0519_
*939 _0520_
*940 _0521_
*941 _0522_
*942 _0523_
*943 _0524_
*944 _0525_
*945 _0526_
*946 _0527_
*947 _0528_
*948 _0529_
*949 _0530_
*950 _0531_
*951 _0532_
*952 _0533_
*953 _0534_
*954 _0535_
*955 _0536_
*956 _0537_
*957 _0538_
*958 _0539_
*959 _0540_
*960 _0541_
*961 _0542_
*962 _0543_
*963 _0544_
*964 _0545_
*965 _0546_
*966 _0547_
*967 _0548_
*968 _0549_
*969 _0550_
*970 _0551_
*971 _0552_
*972 _0553_
*973 _0554_
*974 _0555_
*975 _0556_
*976 _0557_
*977 _0558_
*978 _0559_
*979 _0560_
*980 _0561_
*981 _0562_
*982 _0563_
*983 _0564_
*984 _0565_
*985 _0566_
*986 _0567_
*987 _0568_
*988 _0569_
*989 _0570_
*990 _0571_
*991 _0572_
*992 _0573_
*993 _0574_
*994 _0575_
*995 _0576_
*996 _0577_
*997 _0578_
*998 _0579_
*999 _0580_
*1000 _0581_
*1001 _0582_
*1002 _0583_
*1003 _0584_
*1004 _0585_
*1005 _0586_
*1006 _0587_
*1007 _0588_
*1008 _0589_
*1009 _0590_
*1010 _0591_
*1011 _0592_
*1012 _0593_
*1013 _0594_
*1014 _0595_
*1015 _0596_
*1016 _0597_
*1017 _0598_
*1018 _0599_
*1019 _0600_
*1020 _0601_
*1021 _0602_
*1022 _0603_
*1023 _0604_
*1024 _0605_
*1025 _0606_
*1026 _0607_
*1027 _0608_
*1028 _0609_
*1029 _0610_
*1030 _0611_
*1031 _0612_
*1032 _0613_
*1033 _0614_
*1034 _0615_
*1035 _0616_
*1036 _0617_
*1037 _0618_
*1038 _0619_
*1039 _0620_
*1040 _0621_
*1041 _0622_
*1042 _0623_
*1043 _0624_
*1044 _0625_
*1045 _0626_
*1046 _0627_
*1047 _0628_
*1048 _0629_
*1049 _0630_
*1050 _0631_
*1051 _0632_
*1052 _0633_
*1053 _0634_
*1054 _0635_
*1055 _0636_
*1056 _0637_
*1057 _0638_
*1058 _0639_
*1059 _0640_
*1060 _0641_
*1061 _0642_
*1062 _0643_
*1063 _0644_
*1064 _0645_
*1065 _0646_
*1066 _0647_
*1067 _0648_
*1068 _0649_
*1069 _0650_
*1070 _0651_
*1071 _0652_
*1072 _0653_
*1073 _0654_
*1074 _0655_
*1075 _0656_
*1076 _0657_
*1077 _0658_
*1078 _0659_
*1079 _0660_
*1080 _0661_
*1081 _0662_
*1082 _0663_
*1083 _0664_
*1084 _0665_
*1085 _0666_
*1086 _0667_
*1087 _0668_
*1088 _0669_
*1089 _0670_
*1090 _0671_
*1091 _0672_
*1092 _0673_
*1093 _0674_
*1094 _0675_
*1095 _0676_
*1096 _0677_
*1097 _0678_
*1098 _0679_
*1099 _0680_
*1100 _0681_
*1101 _0682_
*1102 _0683_
*1103 _0684_
*1104 _0685_
*1105 _0686_
*1106 _0687_
*1107 _0688_
*1108 _0689_
*1109 _0690_
*1110 _0691_
*1111 _0692_
*1112 _0693_
*1113 _0694_
*1114 _0695_
*1115 _0696_
*1116 _0697_
*1117 _0698_
*1118 _0699_
*1119 _0700_
*1120 _0701_
*1121 _0702_
*1122 _0703_
*1123 _0704_
*1124 _0705_
*1125 _0706_
*1126 _0707_
*1127 _0708_
*1128 _0709_
*1129 _0710_
*1130 _0711_
*1131 _0712_
*1132 _0713_
*1133 _0714_
*1134 _0715_
*1135 _0716_
*1136 _0717_
*1137 _0718_
*1138 _0719_
*1139 _0720_
*1140 _0721_
*1141 _0722_
*1142 _0723_
*1143 _0724_
*1144 _0725_
*1145 _0726_
*1146 _0727_
*1147 _0728_
*1148 _0729_
*1149 _0730_
*1150 _0731_
*1151 _0732_
*1152 _0733_
*1153 _0734_
*1154 _0735_
*1155 _0736_
*1156 _0737_
*1157 _0738_
*1158 _0739_
*1159 _0740_
*1160 _0741_
*1161 _0742_
*1162 _0743_
*1163 _0744_
*1164 _0745_
*1165 _0746_
*1166 _0747_
*1167 _0748_
*1168 _0749_
*1169 _0750_
*1170 _0751_
*1171 _0752_
*1172 _0753_
*1173 _0754_
*1174 _0755_
*1175 _0756_
*1176 _0757_
*1177 _0758_
*1178 _0759_
*1179 _0760_
*1180 _0761_
*1181 _0762_
*1182 _0763_
*1183 _0764_
*1184 _0765_
*1185 _0766_
*1186 _0767_
*1187 _0768_
*1188 _0769_
*1189 _0770_
*1190 _0771_
*1191 _0772_
*1192 _0773_
*1193 _0774_
*1194 _0775_
*1195 _0776_
*1196 _0777_
*1197 _0778_
*1198 _0779_
*1199 _0780_
*1200 _0781_
*1201 _0782_
*1202 _0783_
*1203 _0784_
*1204 _0785_
*1205 _0786_
*1206 _0787_
*1207 _0788_
*1208 _0789_
*1209 _0790_
*1210 _0791_
*1211 _0792_
*1212 _0793_
*1213 _0794_
*1214 _0795_
*1215 _0796_
*1216 _0797_
*1217 _0798_
*1218 _0799_
*1219 _0800_
*1220 _0801_
*1221 _0802_
*1222 _0803_
*1223 _0804_
*1224 _0805_
*1225 _0806_
*1226 _0807_
*1227 _0808_
*1228 _0809_
*1229 _0810_
*1230 _0811_
*1231 _0812_
*1232 _0813_
*1233 _0814_
*1234 _0815_
*1235 _0816_
*1236 _0817_
*1237 _0818_
*1238 _0819_
*1239 _0820_
*1240 _0821_
*1241 _0822_
*1242 _0823_
*1243 _0824_
*1244 _0825_
*1245 _0826_
*1246 _0827_
*1247 _0828_
*1248 _0829_
*1249 _0830_
*1250 _0831_
*1251 _0832_
*1252 _0833_
*1253 _0834_
*1254 _0835_
*1255 _0836_
*1256 _0837_
*1257 _0838_
*1258 _0839_
*1259 _0840_
*1260 _0841_
*1261 _0842_
*1262 _0843_
*1263 _0844_
*1264 _0845_
*1265 _0846_
*1266 _0847_
*1267 _0848_
*1268 _0849_
*1269 _0850_
*1270 _0851_
*1271 _0852_
*1272 _0853_
*1273 _0854_
*1274 _0855_
*1275 _0856_
*1276 _0857_
*1277 _0858_
*1278 _0859_
*1279 _0860_
*1280 _0861_
*1281 _0862_
*1282 _0863_
*1283 _0864_
*1284 _0865_
*1285 _0866_
*1286 _0867_
*1287 _0868_
*1288 _0869_
*1289 _0870_
*1290 _0871_
*1291 _0872_
*1292 _0873_
*1293 _0874_
*1294 _0875_
*1295 _0876_
*1296 _0877_
*1297 _0878_
*1298 _0879_
*1299 _0880_
*1300 _0881_
*1301 _0882_
*1302 _0883_
*1303 _0884_
*1304 _0885_
*1305 _0886_
*1306 _0887_
*1307 _0888_
*1308 _0889_
*1309 _0890_
*1310 _0891_
*1311 _0892_
*1312 _0893_
*1313 _0894_
*1314 _0895_
*1315 _0896_
*1316 _0897_
*1317 _0898_
*1318 _0899_
*1319 _0900_
*1320 _0901_
*1321 _0902_
*1322 _0903_
*1323 _0904_
*1324 _0905_
*1325 _0906_
*1326 _0907_
*1327 _0908_
*1328 _0909_
*1329 _0910_
*1330 _0911_
*1331 _0912_
*1332 _0913_
*1333 _0914_
*1334 _0915_
*1335 _0916_
*1336 _0917_
*1337 _0918_
*1338 _0919_
*1339 _0920_
*1340 _0921_
*1341 _0922_
*1342 _0923_
*1343 _0924_
*1344 _0925_
*1345 _0926_
*1346 _0927_
*1347 _0928_
*1348 _0929_
*1349 _0930_
*1350 _0931_
*1351 _0932_
*1352 _0933_
*1353 _0934_
*1354 _0935_
*1355 _0936_
*1356 _0937_
*1357 _0938_
*1358 _0939_
*1359 _0940_
*1360 _0941_
*1361 _0942_
*1362 _0943_
*1363 _0944_
*1364 _0945_
*1365 _0946_
*1366 _0947_
*1367 _0948_
*1368 _0949_
*1369 _0950_
*1370 _0951_
*1371 _0952_
*1372 _0953_
*1373 _0954_
*1374 _0955_
*1375 _0956_
*1376 _0957_
*1377 _0958_
*1378 _0959_
*1379 _0960_
*1380 _0961_
*1381 _0962_
*1382 _0963_
*1383 _0964_
*1384 _0965_
*1385 _0966_
*1386 _0967_
*1387 _0968_
*1388 _0969_
*1389 _0970_
*1390 _0971_
*1391 _0972_
*1392 _0973_
*1393 _0974_
*1394 _0975_
*1395 _0976_
*1396 _0977_
*1397 _0978_
*1398 _0979_
*1399 _0980_
*1400 _0981_
*1401 _0982_
*1402 _0983_
*1403 _0984_
*1404 _0985_
*1405 _0986_
*1406 _0987_
*1407 _0988_
*1408 _0989_
*1409 _0990_
*1410 _0991_
*1411 _0992_
*1412 _0993_
*1413 _0994_
*1414 _0995_
*1415 _0996_
*1416 _0997_
*1417 _0998_
*1418 _0999_
*1419 _1000_
*1420 _1001_
*1421 _1002_
*1422 _1003_
*1423 _1004_
*1424 _1005_
*1425 mod\.cpu\.alu\.add_cy_r
*1426 mod\.cpu\.alu\.cmp_r
*1427 mod\.cpu\.alu\.i_rs1
*1428 mod\.cpu\.bne_or_bge
*1429 mod\.cpu\.branch_op
*1430 mod\.cpu\.bufreg\.c_r
*1431 mod\.cpu\.bufreg\.data\[10\]
*1432 mod\.cpu\.bufreg\.data\[11\]
*1433 mod\.cpu\.bufreg\.data\[12\]
*1434 mod\.cpu\.bufreg\.data\[13\]
*1435 mod\.cpu\.bufreg\.data\[14\]
*1436 mod\.cpu\.bufreg\.data\[15\]
*1437 mod\.cpu\.bufreg\.data\[16\]
*1438 mod\.cpu\.bufreg\.data\[17\]
*1439 mod\.cpu\.bufreg\.data\[18\]
*1440 mod\.cpu\.bufreg\.data\[19\]
*1441 mod\.cpu\.bufreg\.data\[20\]
*1442 mod\.cpu\.bufreg\.data\[21\]
*1443 mod\.cpu\.bufreg\.data\[22\]
*1444 mod\.cpu\.bufreg\.data\[23\]
*1445 mod\.cpu\.bufreg\.data\[24\]
*1446 mod\.cpu\.bufreg\.data\[25\]
*1447 mod\.cpu\.bufreg\.data\[26\]
*1448 mod\.cpu\.bufreg\.data\[27\]
*1449 mod\.cpu\.bufreg\.data\[28\]
*1450 mod\.cpu\.bufreg\.data\[29\]
*1451 mod\.cpu\.bufreg\.data\[2\]
*1452 mod\.cpu\.bufreg\.data\[30\]
*1453 mod\.cpu\.bufreg\.data\[31\]
*1454 mod\.cpu\.bufreg\.data\[3\]
*1455 mod\.cpu\.bufreg\.data\[4\]
*1456 mod\.cpu\.bufreg\.data\[5\]
*1457 mod\.cpu\.bufreg\.data\[6\]
*1458 mod\.cpu\.bufreg\.data\[7\]
*1459 mod\.cpu\.bufreg\.data\[8\]
*1460 mod\.cpu\.bufreg\.data\[9\]
*1461 mod\.cpu\.bufreg\.i_sh_signed
*1462 mod\.cpu\.bufreg\.lsb\[0\]
*1463 mod\.cpu\.bufreg\.lsb\[1\]
*1464 mod\.cpu\.bufreg2\.dat\[0\]
*1465 mod\.cpu\.bufreg2\.dat\[10\]
*1466 mod\.cpu\.bufreg2\.dat\[11\]
*1467 mod\.cpu\.bufreg2\.dat\[12\]
*1468 mod\.cpu\.bufreg2\.dat\[13\]
*1469 mod\.cpu\.bufreg2\.dat\[14\]
*1470 mod\.cpu\.bufreg2\.dat\[15\]
*1471 mod\.cpu\.bufreg2\.dat\[16\]
*1472 mod\.cpu\.bufreg2\.dat\[17\]
*1473 mod\.cpu\.bufreg2\.dat\[18\]
*1474 mod\.cpu\.bufreg2\.dat\[19\]
*1475 mod\.cpu\.bufreg2\.dat\[1\]
*1476 mod\.cpu\.bufreg2\.dat\[20\]
*1477 mod\.cpu\.bufreg2\.dat\[21\]
*1478 mod\.cpu\.bufreg2\.dat\[22\]
*1479 mod\.cpu\.bufreg2\.dat\[23\]
*1480 mod\.cpu\.bufreg2\.dat\[24\]
*1481 mod\.cpu\.bufreg2\.dat\[25\]
*1482 mod\.cpu\.bufreg2\.dat\[26\]
*1483 mod\.cpu\.bufreg2\.dat\[27\]
*1484 mod\.cpu\.bufreg2\.dat\[28\]
*1485 mod\.cpu\.bufreg2\.dat\[29\]
*1486 mod\.cpu\.bufreg2\.dat\[2\]
*1487 mod\.cpu\.bufreg2\.dat\[30\]
*1488 mod\.cpu\.bufreg2\.dat\[31\]
*1489 mod\.cpu\.bufreg2\.dat\[3\]
*1490 mod\.cpu\.bufreg2\.dat\[4\]
*1491 mod\.cpu\.bufreg2\.dat\[5\]
*1492 mod\.cpu\.bufreg2\.dat\[6\]
*1493 mod\.cpu\.bufreg2\.dat\[7\]
*1494 mod\.cpu\.bufreg2\.dat\[8\]
*1495 mod\.cpu\.bufreg2\.dat\[9\]
*1496 mod\.cpu\.bufreg2\.i_cnt_done
*1497 mod\.cpu\.bufreg2\.i_dat\[0\]
*1498 mod\.cpu\.bufreg2\.i_dat\[10\]
*1499 mod\.cpu\.bufreg2\.i_dat\[11\]
*1500 mod\.cpu\.bufreg2\.i_dat\[12\]
*1501 mod\.cpu\.bufreg2\.i_dat\[13\]
*1502 mod\.cpu\.bufreg2\.i_dat\[14\]
*1503 mod\.cpu\.bufreg2\.i_dat\[15\]
*1504 mod\.cpu\.bufreg2\.i_dat\[16\]
*1505 mod\.cpu\.bufreg2\.i_dat\[17\]
*1506 mod\.cpu\.bufreg2\.i_dat\[18\]
*1507 mod\.cpu\.bufreg2\.i_dat\[19\]
*1508 mod\.cpu\.bufreg2\.i_dat\[1\]
*1509 mod\.cpu\.bufreg2\.i_dat\[20\]
*1510 mod\.cpu\.bufreg2\.i_dat\[21\]
*1511 mod\.cpu\.bufreg2\.i_dat\[22\]
*1512 mod\.cpu\.bufreg2\.i_dat\[23\]
*1513 mod\.cpu\.bufreg2\.i_dat\[24\]
*1514 mod\.cpu\.bufreg2\.i_dat\[25\]
*1515 mod\.cpu\.bufreg2\.i_dat\[26\]
*1516 mod\.cpu\.bufreg2\.i_dat\[27\]
*1517 mod\.cpu\.bufreg2\.i_dat\[28\]
*1518 mod\.cpu\.bufreg2\.i_dat\[29\]
*1519 mod\.cpu\.bufreg2\.i_dat\[2\]
*1520 mod\.cpu\.bufreg2\.i_dat\[30\]
*1521 mod\.cpu\.bufreg2\.i_dat\[31\]
*1522 mod\.cpu\.bufreg2\.i_dat\[3\]
*1523 mod\.cpu\.bufreg2\.i_dat\[4\]
*1524 mod\.cpu\.bufreg2\.i_dat\[5\]
*1525 mod\.cpu\.bufreg2\.i_dat\[6\]
*1526 mod\.cpu\.bufreg2\.i_dat\[7\]
*1527 mod\.cpu\.bufreg2\.i_dat\[8\]
*1528 mod\.cpu\.bufreg2\.i_dat\[9\]
*1529 mod\.cpu\.bufreg2\.i_op_b_sel
*1530 mod\.cpu\.bufreg2\.i_rs2
*1531 mod\.cpu\.csr_d_sel
*1532 mod\.cpu\.csr_imm
*1533 mod\.cpu\.ctrl\.i_jump
*1534 mod\.cpu\.ctrl\.o_ibus_adr\[0\]
*1535 mod\.cpu\.ctrl\.o_ibus_adr\[10\]
*1536 mod\.cpu\.ctrl\.o_ibus_adr\[11\]
*1537 mod\.cpu\.ctrl\.o_ibus_adr\[12\]
*1538 mod\.cpu\.ctrl\.o_ibus_adr\[13\]
*1539 mod\.cpu\.ctrl\.o_ibus_adr\[14\]
*1540 mod\.cpu\.ctrl\.o_ibus_adr\[15\]
*1541 mod\.cpu\.ctrl\.o_ibus_adr\[16\]
*1542 mod\.cpu\.ctrl\.o_ibus_adr\[17\]
*1543 mod\.cpu\.ctrl\.o_ibus_adr\[18\]
*1544 mod\.cpu\.ctrl\.o_ibus_adr\[19\]
*1545 mod\.cpu\.ctrl\.o_ibus_adr\[1\]
*1546 mod\.cpu\.ctrl\.o_ibus_adr\[20\]
*1547 mod\.cpu\.ctrl\.o_ibus_adr\[21\]
*1548 mod\.cpu\.ctrl\.o_ibus_adr\[22\]
*1549 mod\.cpu\.ctrl\.o_ibus_adr\[23\]
*1550 mod\.cpu\.ctrl\.o_ibus_adr\[24\]
*1551 mod\.cpu\.ctrl\.o_ibus_adr\[25\]
*1552 mod\.cpu\.ctrl\.o_ibus_adr\[26\]
*1553 mod\.cpu\.ctrl\.o_ibus_adr\[27\]
*1554 mod\.cpu\.ctrl\.o_ibus_adr\[28\]
*1555 mod\.cpu\.ctrl\.o_ibus_adr\[29\]
*1556 mod\.cpu\.ctrl\.o_ibus_adr\[2\]
*1557 mod\.cpu\.ctrl\.o_ibus_adr\[30\]
*1558 mod\.cpu\.ctrl\.o_ibus_adr\[31\]
*1559 mod\.cpu\.ctrl\.o_ibus_adr\[3\]
*1560 mod\.cpu\.ctrl\.o_ibus_adr\[4\]
*1561 mod\.cpu\.ctrl\.o_ibus_adr\[5\]
*1562 mod\.cpu\.ctrl\.o_ibus_adr\[6\]
*1563 mod\.cpu\.ctrl\.o_ibus_adr\[7\]
*1564 mod\.cpu\.ctrl\.o_ibus_adr\[8\]
*1565 mod\.cpu\.ctrl\.o_ibus_adr\[9\]
*1566 mod\.cpu\.ctrl\.pc_plus_4_cy_r
*1567 mod\.cpu\.ctrl\.pc_plus_offset_cy_r
*1568 mod\.cpu\.decode\.co_ebreak
*1569 mod\.cpu\.decode\.co_mem_word
*1570 mod\.cpu\.decode\.opcode\[0\]
*1571 mod\.cpu\.decode\.opcode\[1\]
*1572 mod\.cpu\.decode\.opcode\[2\]
*1573 mod\.cpu\.i_rf_ready
*1574 mod\.cpu\.i_timer_irq
*1575 mod\.cpu\.immdec\.imm11_7\[0\]
*1576 mod\.cpu\.immdec\.imm11_7\[1\]
*1577 mod\.cpu\.immdec\.imm11_7\[2\]
*1578 mod\.cpu\.immdec\.imm11_7\[3\]
*1579 mod\.cpu\.immdec\.imm11_7\[4\]
*1580 mod\.cpu\.immdec\.imm19_12_20\[0\]
*1581 mod\.cpu\.immdec\.imm19_12_20\[1\]
*1582 mod\.cpu\.immdec\.imm19_12_20\[2\]
*1583 mod\.cpu\.immdec\.imm19_12_20\[3\]
*1584 mod\.cpu\.immdec\.imm19_12_20\[5\]
*1585 mod\.cpu\.immdec\.imm19_12_20\[6\]
*1586 mod\.cpu\.immdec\.imm19_12_20\[7\]
*1587 mod\.cpu\.immdec\.imm19_12_20\[8\]
*1588 mod\.cpu\.immdec\.imm24_20\[0\]
*1589 mod\.cpu\.immdec\.imm24_20\[1\]
*1590 mod\.cpu\.immdec\.imm24_20\[2\]
*1591 mod\.cpu\.immdec\.imm24_20\[3\]
*1592 mod\.cpu\.immdec\.imm24_20\[4\]
*1593 mod\.cpu\.immdec\.imm30_25\[0\]
*1594 mod\.cpu\.immdec\.imm30_25\[1\]
*1595 mod\.cpu\.immdec\.imm30_25\[2\]
*1596 mod\.cpu\.immdec\.imm30_25\[3\]
*1597 mod\.cpu\.immdec\.imm30_25\[4\]
*1598 mod\.cpu\.immdec\.imm30_25\[5\]
*1599 mod\.cpu\.immdec\.imm31
*1600 mod\.cpu\.immdec\.imm7
*1601 mod\.cpu\.mem_bytecnt\[0\]
*1602 mod\.cpu\.mem_bytecnt\[1\]
*1603 mod\.cpu\.mem_if\.signbit
*1604 mod\.cpu\.state\.ibus_cyc
*1605 mod\.cpu\.state\.init_done
*1606 mod\.cpu\.state\.o_cnt\[2\]
*1607 mod\.cpu\.state\.o_cnt_r\[0\]
*1608 mod\.cpu\.state\.o_cnt_r\[1\]
*1609 mod\.cpu\.state\.o_cnt_r\[2\]
*1610 mod\.cpu\.state\.o_cnt_r\[3\]
*1611 mod\.cpu\.state\.stage_two_req
*1612 mod\.u_arbiter\.i_wb_cpu_ack
*1613 mod\.u_scanchain_local\.module_data_in\[37\]
*1614 mod\.u_scanchain_local\.module_data_in\[38\]
*1615 mod\.u_scanchain_local\.module_data_in\[39\]
*1616 mod\.u_scanchain_local\.module_data_in\[40\]
*1617 mod\.u_scanchain_local\.module_data_in\[41\]
*1618 mod\.u_scanchain_local\.module_data_in\[42\]
*1619 mod\.u_scanchain_local\.module_data_in\[43\]
*1620 mod\.u_scanchain_local\.module_data_in\[44\]
*1621 mod\.u_scanchain_local\.module_data_in\[45\]
*1622 mod\.u_scanchain_local\.module_data_in\[46\]
*1623 mod\.u_scanchain_local\.module_data_in\[47\]
*1624 mod\.u_scanchain_local\.module_data_in\[48\]
*1625 mod\.u_scanchain_local\.module_data_in\[49\]
*1626 mod\.u_scanchain_local\.module_data_in\[50\]
*1627 mod\.u_scanchain_local\.module_data_in\[51\]
*1628 mod\.u_scanchain_local\.module_data_in\[52\]
*1629 mod\.u_scanchain_local\.module_data_in\[53\]
*1630 mod\.u_scanchain_local\.module_data_in\[54\]
*1631 mod\.u_scanchain_local\.module_data_in\[55\]
*1632 mod\.u_scanchain_local\.module_data_in\[56\]
*1633 mod\.u_scanchain_local\.module_data_in\[57\]
*1634 mod\.u_scanchain_local\.module_data_in\[58\]
*1635 mod\.u_scanchain_local\.module_data_in\[59\]
*1636 mod\.u_scanchain_local\.module_data_in\[60\]
*1637 mod\.u_scanchain_local\.module_data_in\[61\]
*1638 mod\.u_scanchain_local\.module_data_in\[62\]
*1639 mod\.u_scanchain_local\.module_data_in\[63\]
*1640 mod\.u_scanchain_local\.module_data_in\[64\]
*1641 mod\.u_scanchain_local\.module_data_in\[65\]
*1642 mod\.u_scanchain_local\.module_data_in\[66\]
*1643 mod\.u_scanchain_local\.module_data_in\[67\]
*1644 mod\.u_scanchain_local\.module_data_in\[68\]
*1645 mod\.u_scanchain_local\.module_data_in\[69\]
*1646 mod\.u_scanchain_local\.module_data_in\[70\]
*1647 mod\.u_scanchain_local\.module_data_in\[71\]
*1648 mod\.u_scanchain_local\.module_data_in\[72\]
*1649 mod\.u_scanchain_local\.module_data_in\[73\]
*1650 mod\.u_scanchain_local\.module_data_in\[74\]
*1651 mod\.u_scanchain_local\.module_data_in\[75\]
*1652 mod\.u_scanchain_local\.module_data_in\[76\]
*1653 mod\.u_scanchain_local\.module_data_in\[77\]
*1654 mod\.u_scanchain_local\.module_data_in\[78\]
*1655 mod\.u_scanchain_local\.module_data_in\[79\]
*1656 mod\.u_scanchain_local\.module_data_in\[80\]
*1657 mod\.u_scanchain_local\.module_data_in\[81\]
*1658 mod\.u_scanchain_local\.module_data_in\[82\]
*1659 mod\.u_scanchain_local\.module_data_in\[83\]
*1660 mod\.u_scanchain_local\.module_data_in\[84\]
*1661 mod\.u_scanchain_local\.module_data_in\[85\]
*1662 mod\.u_scanchain_local\.module_data_in\[86\]
*1663 mod\.u_scanchain_local\.module_data_in\[87\]
*1664 mod\.u_scanchain_local\.module_data_in\[88\]
*1665 mod\.u_scanchain_local\.module_data_in\[89\]
*1666 mod\.u_scanchain_local\.module_data_in\[90\]
*1667 mod\.u_scanchain_local\.module_data_in\[91\]
*1668 mod\.u_scanchain_local\.module_data_in\[92\]
*1669 mod\.u_scanchain_local\.module_data_in\[93\]
*1670 mod\.u_scanchain_local\.module_data_in\[94\]
*1671 mod\.u_scanchain_local\.module_data_in\[95\]
*1672 net1
*1673 net2
*1674 net3
*1675 net4
*1676 net5
*1677 net6
*1678 net7
*1679 ANTENNA__1006__A1
*1680 ANTENNA__1009__I
*1681 ANTENNA__1012__A2
*1682 ANTENNA__1013__A1
*1683 ANTENNA__1013__A2
*1684 ANTENNA__1013__C
*1685 ANTENNA__1016__I
*1686 ANTENNA__1017__I
*1687 ANTENNA__1018__A1
*1688 ANTENNA__1019__A2
*1689 ANTENNA__1021__A1
*1690 ANTENNA__1022__A1
*1691 ANTENNA__1022__B
*1692 ANTENNA__1024__A1
*1693 ANTENNA__1024__A2
*1694 ANTENNA__1024__A3
*1695 ANTENNA__1025__A1
*1696 ANTENNA__1026__A1
*1697 ANTENNA__1027__I1
*1698 ANTENNA__1032__A1
*1699 ANTENNA__1033__A1
*1700 ANTENNA__1034__I
*1701 ANTENNA__1035__I
*1702 ANTENNA__1036__I
*1703 ANTENNA__1037__I1
*1704 ANTENNA__1039__I1
*1705 ANTENNA__1042__I0
*1706 ANTENNA__1044__I0
*1707 ANTENNA__1046__I
*1708 ANTENNA__1047__S
*1709 ANTENNA__1050__I0
*1710 ANTENNA__1050__S
*1711 ANTENNA__1052__I0
*1712 ANTENNA__1052__S
*1713 ANTENNA__1054__I0
*1714 ANTENNA__1054__S
*1715 ANTENNA__1056__I
*1716 ANTENNA__1057__I0
*1717 ANTENNA__1060__I
*1718 ANTENNA__1062__I
*1719 ANTENNA__1063__I
*1720 ANTENNA__1066__I
*1721 ANTENNA__1067__A1
*1722 ANTENNA__1067__A2
*1723 ANTENNA__1068__A1
*1724 ANTENNA__1070__I
*1725 ANTENNA__1071__I
*1726 ANTENNA__1072__I
*1727 ANTENNA__1075__A1
*1728 ANTENNA__1077__A1