*SPEF "ieee 1481-1999"
*DESIGN "user_project_wrapper"
*DATE "11:11:11 Fri 11 11, 1111"
*VENDOR "OpenRCX"
*PROGRAM "Parallel Extraction"
*VERSION "1.0"
*DESIGN_FLOW "NAME_SCOPE LOCAL" "PIN_CAP NONE"
*DIVIDER /
*DELIMITER :
*BUS_DELIMITER []
*T_UNIT 1 NS
*C_UNIT 1 PF
*R_UNIT 1 OHM
*L_UNIT 1 HENRY

*NAME_MAP
*1 io_in[0]
*2 io_in[10]
*3 io_in[11]
*4 io_in[12]
*5 io_in[13]
*6 io_in[14]
*7 io_in[15]
*8 io_in[16]
*9 io_in[17]
*10 io_in[18]
*11 io_in[19]
*12 io_in[1]
*13 io_in[20]
*14 io_in[21]
*15 io_in[22]
*16 io_in[23]
*17 io_in[24]
*18 io_in[25]
*19 io_in[26]
*20 io_in[27]
*21 io_in[28]
*22 io_in[29]
*23 io_in[2]
*24 io_in[30]
*25 io_in[31]
*26 io_in[32]
*27 io_in[33]
*28 io_in[34]
*29 io_in[35]
*30 io_in[36]
*31 io_in[37]
*32 io_in[3]
*33 io_in[4]
*34 io_in[5]
*35 io_in[6]
*36 io_in[7]
*37 io_in[8]
*38 io_in[9]
*39 io_oeb[0]
*40 io_oeb[10]
*41 io_oeb[11]
*42 io_oeb[12]
*43 io_oeb[13]
*44 io_oeb[14]
*45 io_oeb[15]
*46 io_oeb[16]
*47 io_oeb[17]
*48 io_oeb[18]
*49 io_oeb[19]
*50 io_oeb[1]
*51 io_oeb[20]
*52 io_oeb[21]
*53 io_oeb[22]
*54 io_oeb[23]
*55 io_oeb[24]
*56 io_oeb[25]
*57 io_oeb[26]
*58 io_oeb[27]
*59 io_oeb[28]
*60 io_oeb[29]
*61 io_oeb[2]
*62 io_oeb[30]
*63 io_oeb[31]
*64 io_oeb[32]
*65 io_oeb[33]
*66 io_oeb[34]
*67 io_oeb[35]
*68 io_oeb[36]
*69 io_oeb[37]
*70 io_oeb[3]
*71 io_oeb[4]
*72 io_oeb[5]
*73 io_oeb[6]
*74 io_oeb[7]
*75 io_oeb[8]
*76 io_oeb[9]
*77 io_out[0]
*78 io_out[10]
*79 io_out[11]
*80 io_out[12]
*81 io_out[13]
*82 io_out[14]
*83 io_out[15]
*84 io_out[16]
*85 io_out[17]
*86 io_out[18]
*87 io_out[19]
*88 io_out[1]
*89 io_out[20]
*90 io_out[21]
*91 io_out[22]
*92 io_out[23]
*93 io_out[24]
*94 io_out[25]
*95 io_out[26]
*96 io_out[27]
*97 io_out[28]
*98 io_out[29]
*99 io_out[2]
*100 io_out[30]
*101 io_out[31]
*102 io_out[32]
*103 io_out[33]
*104 io_out[34]
*105 io_out[35]
*106 io_out[36]
*107 io_out[37]
*108 io_out[3]
*109 io_out[4]
*110 io_out[5]
*111 io_out[6]
*112 io_out[7]
*113 io_out[8]
*114 io_out[9]
*115 la_data_in[0]
*116 la_data_in[10]
*117 la_data_in[11]
*118 la_data_in[12]
*119 la_data_in[13]
*120 la_data_in[14]
*121 la_data_in[15]
*122 la_data_in[16]
*123 la_data_in[17]
*124 la_data_in[18]
*125 la_data_in[19]
*126 la_data_in[1]
*127 la_data_in[20]
*128 la_data_in[21]
*129 la_data_in[22]
*130 la_data_in[23]
*131 la_data_in[24]
*132 la_data_in[25]
*133 la_data_in[26]
*134 la_data_in[27]
*135 la_data_in[28]
*136 la_data_in[29]
*137 la_data_in[2]
*138 la_data_in[30]
*139 la_data_in[31]
*140 la_data_in[32]
*141 la_data_in[33]
*142 la_data_in[34]
*143 la_data_in[35]
*144 la_data_in[36]
*145 la_data_in[37]
*146 la_data_in[38]
*147 la_data_in[39]
*148 la_data_in[3]
*149 la_data_in[40]
*150 la_data_in[41]
*151 la_data_in[42]
*152 la_data_in[43]
*153 la_data_in[44]
*154 la_data_in[45]
*155 la_data_in[46]
*156 la_data_in[47]
*157 la_data_in[48]
*158 la_data_in[49]
*159 la_data_in[4]
*160 la_data_in[50]
*161 la_data_in[51]
*162 la_data_in[52]
*163 la_data_in[53]
*164 la_data_in[54]
*165 la_data_in[55]
*166 la_data_in[56]
*167 la_data_in[57]
*168 la_data_in[58]
*169 la_data_in[59]
*170 la_data_in[5]
*171 la_data_in[60]
*172 la_data_in[61]
*173 la_data_in[62]
*174 la_data_in[63]
*175 la_data_in[6]
*176 la_data_in[7]
*177 la_data_in[8]
*178 la_data_in[9]
*179 la_data_out[0]
*180 la_data_out[10]
*181 la_data_out[11]
*182 la_data_out[12]
*183 la_data_out[13]
*184 la_data_out[14]
*185 la_data_out[15]
*186 la_data_out[16]
*187 la_data_out[17]
*188 la_data_out[18]
*189 la_data_out[19]
*190 la_data_out[1]
*191 la_data_out[20]
*192 la_data_out[21]
*193 la_data_out[22]
*194 la_data_out[23]
*195 la_data_out[24]
*196 la_data_out[25]
*197 la_data_out[26]
*198 la_data_out[27]
*199 la_data_out[28]
*200 la_data_out[29]
*201 la_data_out[2]
*202 la_data_out[30]
*203 la_data_out[31]
*204 la_data_out[32]
*205 la_data_out[33]
*206 la_data_out[34]
*207 la_data_out[35]
*208 la_data_out[36]
*209 la_data_out[37]
*210 la_data_out[38]
*211 la_data_out[39]
*212 la_data_out[3]
*213 la_data_out[40]
*214 la_data_out[41]
*215 la_data_out[42]
*216 la_data_out[43]
*217 la_data_out[44]
*218 la_data_out[45]
*219 la_data_out[46]
*220 la_data_out[47]
*221 la_data_out[48]
*222 la_data_out[49]
*223 la_data_out[4]
*224 la_data_out[50]
*225 la_data_out[51]
*226 la_data_out[52]
*227 la_data_out[53]
*228 la_data_out[54]
*229 la_data_out[55]
*230 la_data_out[56]
*231 la_data_out[57]
*232 la_data_out[58]
*233 la_data_out[59]
*234 la_data_out[5]
*235 la_data_out[60]
*236 la_data_out[61]
*237 la_data_out[62]
*238 la_data_out[63]
*239 la_data_out[6]
*240 la_data_out[7]
*241 la_data_out[8]
*242 la_data_out[9]
*243 la_oenb[0]
*244 la_oenb[10]
*245 la_oenb[11]
*246 la_oenb[12]
*247 la_oenb[13]
*248 la_oenb[14]
*249 la_oenb[15]
*250 la_oenb[16]
*251 la_oenb[17]
*252 la_oenb[18]
*253 la_oenb[19]
*254 la_oenb[1]
*255 la_oenb[20]
*256 la_oenb[21]
*257 la_oenb[22]
*258 la_oenb[23]
*259 la_oenb[24]
*260 la_oenb[25]
*261 la_oenb[26]
*262 la_oenb[27]
*263 la_oenb[28]
*264 la_oenb[29]
*265 la_oenb[2]
*266 la_oenb[30]
*267 la_oenb[31]
*268 la_oenb[32]
*269 la_oenb[33]
*270 la_oenb[34]
*271 la_oenb[35]
*272 la_oenb[36]
*273 la_oenb[37]
*274 la_oenb[38]
*275 la_oenb[39]
*276 la_oenb[3]
*277 la_oenb[40]
*278 la_oenb[41]
*279 la_oenb[42]
*280 la_oenb[43]
*281 la_oenb[44]
*282 la_oenb[45]
*283 la_oenb[46]
*284 la_oenb[47]
*285 la_oenb[48]
*286 la_oenb[49]
*287 la_oenb[4]
*288 la_oenb[50]
*289 la_oenb[51]
*290 la_oenb[52]
*291 la_oenb[53]
*292 la_oenb[54]
*293 la_oenb[55]
*294 la_oenb[56]
*295 la_oenb[57]
*296 la_oenb[58]
*297 la_oenb[59]
*298 la_oenb[5]
*299 la_oenb[60]
*300 la_oenb[61]
*301 la_oenb[62]
*302 la_oenb[63]
*303 la_oenb[6]
*304 la_oenb[7]
*305 la_oenb[8]
*306 la_oenb[9]
*307 user_clock2
*308 user_irq[0]
*309 user_irq[1]
*310 user_irq[2]
*313 wb_clk_i
*314 wb_rst_i
*315 wbs_ack_o
*316 wbs_adr_i[0]
*317 wbs_adr_i[10]
*318 wbs_adr_i[11]
*319 wbs_adr_i[12]
*320 wbs_adr_i[13]
*321 wbs_adr_i[14]
*322 wbs_adr_i[15]
*323 wbs_adr_i[16]
*324 wbs_adr_i[17]
*325 wbs_adr_i[18]
*326 wbs_adr_i[19]
*327 wbs_adr_i[1]
*328 wbs_adr_i[20]
*329 wbs_adr_i[21]
*330 wbs_adr_i[22]
*331 wbs_adr_i[23]
*332 wbs_adr_i[24]
*333 wbs_adr_i[25]
*334 wbs_adr_i[26]
*335 wbs_adr_i[27]
*336 wbs_adr_i[28]
*337 wbs_adr_i[29]
*338 wbs_adr_i[2]
*339 wbs_adr_i[30]
*340 wbs_adr_i[31]
*341 wbs_adr_i[3]
*342 wbs_adr_i[4]
*343 wbs_adr_i[5]
*344 wbs_adr_i[6]
*345 wbs_adr_i[7]
*346 wbs_adr_i[8]
*347 wbs_adr_i[9]
*348 wbs_cyc_i
*349 wbs_dat_i[0]
*350 wbs_dat_i[10]
*351 wbs_dat_i[11]
*352 wbs_dat_i[12]
*353 wbs_dat_i[13]
*354 wbs_dat_i[14]
*355 wbs_dat_i[15]
*356 wbs_dat_i[16]
*357 wbs_dat_i[17]
*358 wbs_dat_i[18]
*359 wbs_dat_i[19]
*360 wbs_dat_i[1]
*361 wbs_dat_i[20]
*362 wbs_dat_i[21]
*363 wbs_dat_i[22]
*364 wbs_dat_i[23]
*365 wbs_dat_i[24]
*366 wbs_dat_i[25]
*367 wbs_dat_i[26]
*368 wbs_dat_i[27]
*369 wbs_dat_i[28]
*370 wbs_dat_i[29]
*371 wbs_dat_i[2]
*372 wbs_dat_i[30]
*373 wbs_dat_i[31]
*374 wbs_dat_i[3]
*375 wbs_dat_i[4]
*376 wbs_dat_i[5]
*377 wbs_dat_i[6]
*378 wbs_dat_i[7]
*379 wbs_dat_i[8]
*380 wbs_dat_i[9]
*381 wbs_dat_o[0]
*382 wbs_dat_o[10]
*383 wbs_dat_o[11]
*384 wbs_dat_o[12]
*385 wbs_dat_o[13]
*386 wbs_dat_o[14]
*387 wbs_dat_o[15]
*388 wbs_dat_o[16]
*389 wbs_dat_o[17]
*390 wbs_dat_o[18]
*391 wbs_dat_o[19]
*392 wbs_dat_o[1]
*393 wbs_dat_o[20]
*394 wbs_dat_o[21]
*395 wbs_dat_o[22]
*396 wbs_dat_o[23]
*397 wbs_dat_o[24]
*398 wbs_dat_o[25]
*399 wbs_dat_o[26]
*400 wbs_dat_o[27]
*401 wbs_dat_o[28]
*402 wbs_dat_o[29]
*403 wbs_dat_o[2]
*404 wbs_dat_o[30]
*405 wbs_dat_o[31]
*406 wbs_dat_o[3]
*407 wbs_dat_o[4]
*408 wbs_dat_o[5]
*409 wbs_dat_o[6]
*410 wbs_dat_o[7]
*411 wbs_dat_o[8]
*412 wbs_dat_o[9]
*413 wbs_sel_i[0]
*414 wbs_sel_i[1]
*415 wbs_sel_i[2]
*416 wbs_sel_i[3]
*417 wbs_stb_i
*418 wbs_we_i
*419 mprj

*PORTS
io_in[0] I
io_in[10] I
io_in[11] I
io_in[12] I
io_in[13] I
io_in[14] I
io_in[15] I
io_in[16] I
io_in[17] I
io_in[18] I
io_in[19] I
io_in[1] I
io_in[20] I
io_in[21] I
io_in[22] I
io_in[23] I
io_in[24] I
io_in[25] I
io_in[26] I
io_in[27] I
io_in[28] I
io_in[29] I
io_in[2] I
io_in[30] I
io_in[31] I
io_in[32] I
io_in[33] I
io_in[34] I
io_in[35] I
io_in[36] I
io_in[37] I
io_in[3] I
io_in[4] I
io_in[5] I
io_in[6] I
io_in[7] I
io_in[8] I
io_in[9] I
io_oeb[0] O
io_oeb[10] O
io_oeb[11] O
io_oeb[12] O
io_oeb[13] O
io_oeb[14] O
io_oeb[15] O
io_oeb[16] O
io_oeb[17] O
io_oeb[18] O
io_oeb[19] O
io_oeb[1] O
io_oeb[20] O
io_oeb[21] O
io_oeb[22] O
io_oeb[23] O
io_oeb[24] O
io_oeb[25] O
io_oeb[26] O
io_oeb[27] O
io_oeb[28] O
io_oeb[29] O
io_oeb[2] O
io_oeb[30] O
io_oeb[31] O
io_oeb[32] O
io_oeb[33] O
io_oeb[34] O
io_oeb[35] O
io_oeb[36] O
io_oeb[37] O
io_oeb[3] O
io_oeb[4] O
io_oeb[5] O
io_oeb[6] O
io_oeb[7] O
io_oeb[8] O
io_oeb[9] O
io_out[0] O
io_out[10] O
io_out[11] O
io_out[12] O
io_out[13] O
io_out[14] O
io_out[15] O
io_out[16] O
io_out[17] O
io_out[18] O
io_out[19] O
io_out[1] O
io_out[20] O
io_out[21] O
io_out[22] O
io_out[23] O
io_out[24] O
io_out[25] O
io_out[26] O
io_out[27] O
io_out[28] O
io_out[29] O
io_out[2] O
io_out[30] O
io_out[31] O
io_out[32] O
io_out[33] O
io_out[34] O
io_out[35] O
io_out[36] O
io_out[37] O
io_out[3] O
io_out[4] O
io_out[5] O
io_out[6] O
io_out[7] O
io_out[8] O
io_out[9] O
la_data_in[0] I
la_data_in[10] I
la_data_in[11] I
la_data_in[12] I
la_data_in[13] I
la_data_in[14] I
la_data_in[15] I
la_data_in[16] I
la_data_in[17] I
la_data_in[18] I
la_data_in[19] I
la_data_in[1] I
la_data_in[20] I
la_data_in[21] I
la_data_in[22] I
la_data_in[23] I
la_data_in[24] I
la_data_in[25] I
la_data_in[26] I
la_data_in[27] I
la_data_in[28] I
la_data_in[29] I
la_data_in[2] I
la_data_in[30] I
la_data_in[31] I
la_data_in[32] I
la_data_in[33] I
la_data_in[34] I
la_data_in[35] I
la_data_in[36] I
la_data_in[37] I
la_data_in[38] I
la_data_in[39] I
la_data_in[3] I
la_data_in[40] I
la_data_in[41] I
la_data_in[42] I
la_data_in[43] I
la_data_in[44] I
la_data_in[45] I
la_data_in[46] I
la_data_in[47] I
la_data_in[48] I
la_data_in[49] I
la_data_in[4] I
la_data_in[50] I
la_data_in[51] I
la_data_in[52] I
la_data_in[53] I
la_data_in[54] I
la_data_in[55] I
la_data_in[56] I
la_data_in[57] I
la_data_in[58] I
la_data_in[59] I
la_data_in[5] I
la_data_in[60] I
la_data_in[61] I
la_data_in[62] I
la_data_in[63] I
la_data_in[6] I
la_data_in[7] I
la_data_in[8] I
la_data_in[9] I
la_data_out[0] O
la_data_out[10] O
la_data_out[11] O
la_data_out[12] O
la_data_out[13] O
la_data_out[14] O
la_data_out[15] O
la_data_out[16] O
la_data_out[17] O
la_data_out[18] O
la_data_out[19] O
la_data_out[1] O
la_data_out[20] O
la_data_out[21] O
la_data_out[22] O
la_data_out[23] O
la_data_out[24] O
la_data_out[25] O
la_data_out[26] O
la_data_out[27] O
la_data_out[28] O
la_data_out[29] O
la_data_out[2] O
la_data_out[30] O
la_data_out[31] O
la_data_out[32] O
la_data_out[33] O
la_data_out[34] O
la_data_out[35] O
la_data_out[36] O
la_data_out[37] O
la_data_out[38] O
la_data_out[39] O
la_data_out[3] O
la_data_out[40] O
la_data_out[41] O
la_data_out[42] O
la_data_out[43] O
la_data_out[44] O
la_data_out[45] O
la_data_out[46] O
la_data_out[47] O
la_data_out[48] O
la_data_out[49] O
la_data_out[4] O
la_data_out[50] O
la_data_out[51] O
la_data_out[52] O
la_data_out[53] O
la_data_out[54] O
la_data_out[55] O
la_data_out[56] O
la_data_out[57] O
la_data_out[58] O
la_data_out[59] O
la_data_out[5] O
la_data_out[60] O
la_data_out[61] O
la_data_out[62] O
la_data_out[63] O
la_data_out[6] O
la_data_out[7] O
la_data_out[8] O
la_data_out[9] O
la_oenb[0] I
la_oenb[10] I
la_oenb[11] I
la_oenb[12] I
la_oenb[13] I
la_oenb[14] I
la_oenb[15] I
la_oenb[16] I
la_oenb[17] I
la_oenb[18] I
la_oenb[19] I
la_oenb[1] I
la_oenb[20] I
la_oenb[21] I
la_oenb[22] I
la_oenb[23] I
la_oenb[24] I
la_oenb[25] I
la_oenb[26] I
la_oenb[27] I
la_oenb[28] I
la_oenb[29] I
la_oenb[2] I
la_oenb[30] I
la_oenb[31] I
la_oenb[32] I
la_oenb[33] I
la_oenb[34] I
la_oenb[35] I
la_oenb[36] I
la_oenb[37] I
la_oenb[38] I
la_oenb[39] I
la_oenb[3] I
la_oenb[40] I
la_oenb[41] I
la_oenb[42] I
la_oenb[43] I
la_oenb[44] I
la_oenb[45] I
la_oenb[46] I
la_oenb[47] I
la_oenb[48] I
la_oenb[49] I
la_oenb[4] I
la_oenb[50] I
la_oenb[51] I
la_oenb[52] I
la_oenb[53] I
la_oenb[54] I
la_oenb[55] I
la_oenb[56] I
la_oenb[57] I
la_oenb[58] I
la_oenb[59] I
la_oenb[5] I
la_oenb[60] I
la_oenb[61] I
la_oenb[62] I
la_oenb[63] I
la_oenb[6] I
la_oenb[7] I
la_oenb[8] I
la_oenb[9] I
user_clock2 I
user_irq[0] O
user_irq[1] O
user_irq[2] O
wb_clk_i I
wb_rst_i I
wbs_ack_o O
wbs_adr_i[0] I
wbs_adr_i[10] I
wbs_adr_i[11] I
wbs_adr_i[12] I
wbs_adr_i[13] I
wbs_adr_i[14] I
wbs_adr_i[15] I
wbs_adr_i[16] I
wbs_adr_i[17] I
wbs_adr_i[18] I
wbs_adr_i[19] I
wbs_adr_i[1] I
wbs_adr_i[20] I
wbs_adr_i[21] I
wbs_adr_i[22] I
wbs_adr_i[23] I
wbs_adr_i[24] I
wbs_adr_i[25] I
wbs_adr_i[26] I
wbs_adr_i[27] I
wbs_adr_i[28] I
wbs_adr_i[29] I
wbs_adr_i[2] I
wbs_adr_i[30] I
wbs_adr_i[31] I
wbs_adr_i[3] I
wbs_adr_i[4] I
wbs_adr_i[5] I
wbs_adr_i[6] I
wbs_adr_i[7] I
wbs_adr_i[8] I
wbs_adr_i[9] I
wbs_cyc_i I
wbs_dat_i[0] I
wbs_dat_i[10] I
wbs_dat_i[11] I
wbs_dat_i[12] I
wbs_dat_i[13] I
wbs_dat_i[14] I
wbs_dat_i[15] I
wbs_dat_i[16] I
wbs_dat_i[17] I
wbs_dat_i[18] I
wbs_dat_i[19] I
wbs_dat_i[1] I
wbs_dat_i[20] I
wbs_dat_i[21] I
wbs_dat_i[22] I
wbs_dat_i[23] I
wbs_dat_i[24] I
wbs_dat_i[25] I
wbs_dat_i[26] I
wbs_dat_i[27] I
wbs_dat_i[28] I
wbs_dat_i[29] I
wbs_dat_i[2] I
wbs_dat_i[30] I
wbs_dat_i[31] I
wbs_dat_i[3] I
wbs_dat_i[4] I
wbs_dat_i[5] I
wbs_dat_i[6] I
wbs_dat_i[7] I
wbs_dat_i[8] I
wbs_dat_i[9] I
wbs_dat_o[0] O
wbs_dat_o[10] O
wbs_dat_o[11] O
wbs_dat_o[12] O
wbs_dat_o[13] O
wbs_dat_o[14] O
wbs_dat_o[15] O
wbs_dat_o[16] O
wbs_dat_o[17] O
wbs_dat_o[18] O
wbs_dat_o[19] O
wbs_dat_o[1] O
wbs_dat_o[20] O
wbs_dat_o[21] O
wbs_dat_o[22] O
wbs_dat_o[23] O
wbs_dat_o[24] O
wbs_dat_o[25] O
wbs_dat_o[26] O
wbs_dat_o[27] O
wbs_dat_o[28] O
wbs_dat_o[29] O
wbs_dat_o[2] O
wbs_dat_o[30] O
wbs_dat_o[31] O
wbs_dat_o[3] O
wbs_dat_o[4] O
wbs_dat_o[5] O
wbs_dat_o[6] O
wbs_dat_o[7] O
wbs_dat_o[8] O
wbs_dat_o[9] O
wbs_sel_i[0] I
wbs_sel_i[1] I
wbs_sel_i[2] I
wbs_sel_i[3] I
wbs_stb_i I
wbs_we_i I

*D_NET *1 0.677017
*CONN
*P io_in[0] I
*I *419:io_in[0] I *D tiny_user_project
*CAP
1 io_in[0] 0.00265146
2 *419:io_in[0] 0.00344019
3 *1:14 0.0201752
4 *1:13 0.016735
5 *1:11 0.0582824
6 *1:10 0.0609339
7 *419:io_in[0] *419:io_in[27] 0
8 *1:11 la_data_out[4] 0
9 *1:11 *77:14 0
10 *1:11 *116:8 0.0897108
11 *1:14 *134:11 0.299329
12 *1:14 *252:19 0.125759
*RES
1 io_in[0] *1:10 35.595 
2 *1:10 *1:11 665.91 
3 *1:11 *1:13 4.5 
4 *1:13 *1:14 438.93 
5 *1:14 *419:io_in[0] 46.8 
*END

*D_NET *2 0.236561
*CONN
*P io_in[10] I
*I *419:io_in[10] I *D tiny_user_project
*CAP
1 io_in[10] 0.060045
2 *419:io_in[10] 0.000966417
3 *2:8 0.0116089
4 *2:7 0.0106425
5 *2:5 0.060045
6 *419:io_in[10] *220:14 0.0089027
7 *2:8 *5:16 0.0194766
8 *2:8 *179:11 0.0648741
*RES
1 io_in[10] *2:5 653.805 
2 *2:5 *2:7 4.5 
3 *2:7 *2:8 180.81 
4 *2:8 *419:io_in[10] 27.54 
*END

*D_NET *3 0.303007
*CONN
*P io_in[11] I
*I *419:io_in[11] I *D tiny_user_project
*CAP
1 io_in[11] 0.000280649
2 *419:io_in[11] 0.000958335
3 *3:16 0.0258865
4 *3:15 0.0249282
5 *3:13 0.0594598
6 *3:11 0.0597404
7 *3:16 *419:wbs_dat_i[11] 0.00816297
8 *3:16 *137:11 0
9 *3:16 *159:19 0.123549
10 *3:16 *402:11 4.09172e-05
11 *3:16 *404:19 0
*RES
1 io_in[11] *3:11 2.655 
2 *3:11 *3:13 647.91 
3 *3:13 *3:15 4.5 
4 *3:15 *3:16 329.49 
5 *3:16 *419:io_in[11] 22.86 
*END

*D_NET *4 0.262714
*CONN
*P io_in[12] I
*I *419:io_in[12] I *D tiny_user_project
*CAP
1 io_in[12] 0.000215438
2 *419:io_in[12] 0.00189696
3 *4:16 0.0301479
4 *4:15 0.028251
5 *4:13 0.0601479
6 *4:11 0.0603634
7 *419:io_in[12] *419:la_oenb[28] 0
8 *419:io_in[12] *419:wbs_dat_i[22] 0
9 *4:16 *122:19 0.0816911
*RES
1 io_in[12] *4:11 2.115 
2 *4:11 *4:13 656.01 
3 *4:13 *4:15 4.5 
4 *4:15 *4:16 332.19 
5 *4:16 *419:io_in[12] 31.59 
*END

*D_NET *5 0.38893
*CONN
*P io_in[13] I
*I *419:io_in[13] I *D tiny_user_project
*CAP
1 io_in[13] 0.000145659
2 *419:io_in[13] 0.00158024
3 *5:16 0.0304918
4 *5:15 0.0289115
5 *5:13 0.0598777
6 *5:11 0.0600234
7 *5:16 *120:19 0.0755535
8 *5:16 *179:11 0.11287
9 *2:8 *5:16 0.0194766
*RES
1 io_in[13] *5:11 1.575 
2 *5:11 *5:13 653.49 
3 *5:13 *5:15 4.5 
4 *5:15 *5:16 442.89 
5 *5:16 *419:io_in[13] 28.44 
*END

*D_NET *6 0.431005
*CONN
*P io_in[14] I
*I *419:io_in[14] I *D tiny_user_project
*CAP
1 io_in[14] 0.00397136
2 *419:io_in[14] 0.000323458
3 *6:12 0.0286629
4 *6:11 0.0283394
5 *6:9 0.0549859
6 *6:7 0.0589573
7 *419:io_in[14] *103:12 0
8 *6:12 *41:13 0.0248694
9 *6:12 *48:15 0.00396897
10 *6:12 *82:13 0.0805863
11 *6:12 *126:11 0.115448
12 *6:12 *129:11 0.0146688
13 *6:12 *287:25 0.0162237
*RES
1 io_in[14] *6:7 43.425 
2 *6:7 *6:9 599.94 
3 *6:9 *6:11 4.5 
4 *6:11 *6:12 520.29 
5 *6:12 *419:io_in[14] 16.56 
*END

*D_NET *7 0.430272
*CONN
*P io_in[15] I
*I *419:io_in[15] I *D tiny_user_project
*CAP
1 io_in[15] 0.000671366
2 *419:io_in[15] 0.00312688
3 *7:14 0.0115381
4 *7:13 0.00841127
5 *7:11 0.036463
6 *7:10 0.036463
7 *7:8 0.0219182
8 *7:7 0.0225896
9 *419:io_in[15] *223:13 0.00472593
10 *7:8 *45:16 0.18881
11 *7:14 *89:22 0.0955548
*RES
1 io_in[15] *7:7 11.025 
2 *7:7 *7:8 360.81 
3 *7:8 *7:10 4.5 
4 *7:10 *7:11 364.23 
5 *7:11 *7:13 4.5 
6 *7:13 *7:14 152.55 
7 *7:14 *419:io_in[15] 35.775 
*END

*D_NET *8 0.220487
*CONN
*P io_in[16] I
*I *419:io_in[16] I *D tiny_user_project
*CAP
1 io_in[16] 0.00240124
2 *419:io_in[16] 7.78186e-05
3 *8:14 0.0233576
4 *8:13 0.0232798
5 *8:11 0.0589161
6 *8:10 0.0589161
7 *8:8 0.00240124
8 *419:io_in[16] *127:21 0.000146099
9 *8:8 *45:16 0.0243084
10 *8:11 io_out[16] 1.22751e-05
11 *8:11 *160:5 0
12 *8:14 *127:21 0.0266707
*RES
1 io_in[16] *8:8 45.855 
2 *8:8 *8:10 4.5 
3 *8:10 *8:11 586.89 
4 *8:11 *8:13 4.5 
5 *8:13 *8:14 258.39 
6 *8:14 *419:io_in[16] 10.17 
*END

*D_NET *9 0.123644
*CONN
*P io_in[17] I
*I *419:io_in[17] I *D tiny_user_project
*CAP
1 io_in[17] 0.000291323
2 *419:io_in[17] 0.000689344
3 *9:19 0.013976
4 *9:18 0.0132867
5 *9:16 0.0178753
6 *9:15 0.0178753
7 *9:13 0.0279685
8 *9:11 0.0282599
9 *419:io_in[17] *419:la_oenb[29] 8.76598e-05
10 *419:io_in[17] *264:14 0.00138017
11 *9:19 *178:19 0.00187068
12 *9:19 *265:11 8.28573e-05
*RES
1 io_in[17] *9:11 3.015 
2 *9:11 *9:13 279.27 
3 *9:13 *9:15 4.5 
4 *9:15 *9:16 174.33 
5 *9:16 *9:18 4.5 
6 *9:18 *9:19 135.99 
7 *9:19 *419:io_in[17] 24.3 
*END

*D_NET *10 0.197585
*CONN
*P io_in[18] I
*I *419:io_in[18] I *D tiny_user_project
*CAP
1 io_in[18] 0.000104982
2 *419:io_in[18] 0.00372625
3 *10:16 0.0125487
4 *10:15 0.00882249
5 *10:13 0.036871
6 *10:11 0.036976
7 *419:io_in[18] *419:wbs_adr_i[0] 0.000182976
8 *10:16 *45:10 0.0934412
9 *10:16 *97:10 0.00491141
*RES
1 io_in[18] *10:11 1.395 
2 *10:11 *10:13 368.19 
3 *10:13 *10:15 4.5 
4 *10:15 *10:16 158.31 
5 *10:16 *419:io_in[18] 39.375 
*END

*D_NET *11 0.405276
*CONN
*P io_in[19] I
*I *419:io_in[19] I *D tiny_user_project
*CAP
1 io_in[19] 0.000224243
2 *419:io_in[19] 0.00168778
3 *11:19 0.0359986
4 *11:18 0.0343109
5 *11:16 0.0040062
6 *11:13 0.0154921
7 *11:11 0.0117102
8 *419:io_in[19] *419:la_oenb[52] 0
9 *419:io_in[19] *290:14 0
10 *11:19 *31:16 0.127355
11 *11:19 *256:11 0.174491
*RES
1 io_in[19] *11:11 2.475 
2 *11:11 *11:13 114.57 
3 *11:13 *11:16 47.97 
4 *11:16 *11:18 4.5 
5 *11:18 *11:19 531.81 
6 *11:19 *419:io_in[19] 28.62 
*END

*D_NET *12 0.932561
*CONN
*P io_in[1] I
*I *419:io_in[1] I *D tiny_user_project
*CAP
1 io_in[1] 0.000651596
2 *419:io_in[1] 0.000697124
3 *12:21 0.00396002
4 *12:20 0.00424346
5 *12:11 0.0117545
6 *12:10 0.010774
7 *12:8 0.0422916
8 *12:7 0.0429432
9 *12:8 io_oeb[4] 0.00396897
10 *12:8 *34:10 0.0177376
11 *12:8 *36:8 0.0678202
12 *12:11 *164:16 0.215542
13 *12:11 *174:16 0.27336
14 *12:11 *231:5 0
15 *12:21 *72:8 0.00335716
16 *12:21 *124:22 0.0713039
17 *12:21 *179:8 0.123157
18 *12:21 *254:22 0.0112514
19 *12:21 *387:8 0.01092
20 *12:21 *400:10 0.0162875
21 *12:21 *400:12 0.000538767
*RES
1 io_in[1] *12:7 11.025 
2 *12:7 *12:8 485.01 
3 *12:8 *12:10 4.5 
4 *12:10 *12:11 429.39 
5 *12:11 *12:20 25.92 
6 *12:20 *12:21 192.87 
7 *12:21 *419:io_in[1] 10.485 
*END

*D_NET *13 0.0970106
*CONN
*P io_in[20] I
*I *419:io_in[20] I *D tiny_user_project
*CAP
1 io_in[20] 0.00434788
2 *419:io_in[20] 2.23177e-05
3 *13:15 0.0123187
4 *13:14 0.0122964
5 *13:12 0.00791434
6 *13:11 0.00791434
7 *13:9 0.0239244
8 *13:7 0.0282722
*RES
1 io_in[20] *13:7 43.245 
2 *13:7 *13:9 239.04 
3 *13:9 *13:11 4.5 
4 *13:11 *13:12 86.49 
5 *13:12 *13:14 4.5 
6 *13:14 *13:15 119.79 
7 *13:15 *419:io_in[20] 0.225 
*END

*D_NET *14 0.475105
*CONN
*P io_in[21] I
*I *419:io_in[21] I *D tiny_user_project
*CAP
1 io_in[21] 0.001471
2 *419:io_in[21] 0.00054646
3 *14:14 0.00406538
4 *14:13 0.00351892
5 *14:11 0.0542497
6 *14:10 0.0557207
7 *14:10 *91:16 0.0103824
8 *14:11 *19:16 0
9 *14:11 *399:11 0.181242
10 *14:14 *419:wbs_dat_i[28] 0.00549162
11 *14:14 *419:wbs_dat_i[4] 0.00673495
12 *14:14 *18:19 0.0450727
13 *14:14 *24:19 0.0090559
14 *14:14 *46:10 0.0664588
15 *14:14 *79:10 0.00814413
16 *14:14 *83:10 0.00169542
17 *14:14 *85:12 0.00165369
18 *14:14 *179:16 0.00884867
19 *14:14 *364:16 0.000496581
20 *14:14 *383:10 0.00293441
21 *14:14 *390:12 0.00166615
22 *14:14 *401:12 0.00394151
23 *14:14 *407:10 0.00171354
*RES
1 io_in[21] *14:10 30.195 
2 *14:10 *14:11 655.65 
3 *14:11 *14:13 4.5 
4 *14:13 *14:14 200.79 
5 *14:14 *419:io_in[21] 9.495 
*END

*D_NET *15 0.153887
*CONN
*P io_in[22] I
*I *419:io_in[22] I *D tiny_user_project
*CAP
1 io_in[22] 0.00167603
2 *419:io_in[22] 0.00307412
3 *15:14 0.0318281
4 *15:13 0.028754
5 *15:11 0.0366124
6 *15:10 0.0382885
7 *419:io_in[22] *16:11 0
8 *419:io_in[22] *16:19 0.0073036
9 *15:10 *16:8 0
10 *15:10 *53:16 0
11 *15:14 *38:9 0
12 *15:14 *309:10 0.00635063
*RES
1 io_in[22] *15:10 26.415 
2 *15:10 *15:11 366.03 
3 *15:11 *15:13 4.5 
4 *15:13 *15:14 341.91 
5 *15:14 *419:io_in[22] 46.1485 
*END

*D_NET *16 0.435435
*CONN
*P io_in[23] I
*I *419:io_in[23] I *D tiny_user_project
*CAP
1 io_in[23] 0.000671366
2 *419:io_in[23] 0.000497505
3 *16:19 0.00312691
4 *16:16 0.00265306
5 *16:11 0.038639
6 *16:10 0.0386153
7 *16:8 0.0260781
8 *16:7 0.0267495
9 *16:8 io_out[21] 0
10 *16:8 *91:16 0.266149
11 *16:11 *187:11 0
12 *16:16 *157:16 0.00130557
13 *16:16 *297:16 0.00130557
14 *16:19 *419:la_data_in[59] 0.00153439
15 *16:19 *60:13 0.0208064
16 *419:io_in[22] *16:11 0
17 *419:io_in[22] *16:19 0.0073036
18 *15:10 *16:8 0
*RES
1 io_in[23] *16:7 11.025 
2 *16:7 *16:8 456.57 
3 *16:8 *16:10 4.5 
4 *16:10 *16:11 384.57 
5 *16:11 *16:16 10.89 
6 *16:16 *16:19 47.07 
7 *16:19 *419:io_in[23] 13.5 
*END

*D_NET *17 0.360266
*CONN
*P io_in[24] I
*I *419:io_in[24] I *D tiny_user_project
*CAP
1 io_in[24] 0.00459292
2 *419:io_in[24] 0.000214155
3 *17:11 0.0164678
4 *17:10 0.0162536
5 *17:8 0.0646955
6 *17:7 0.0646955
7 *17:5 0.00459292
8 *419:io_in[24] *419:wbs_dat_i[2] 0
9 *419:io_in[24] *58:9 0
10 *17:11 *34:11 0
11 *17:11 *62:8 0
12 *17:11 *98:7 0.00148969
13 *17:11 *98:9 0.0349327
14 *17:11 *101:10 0.0462539
15 *17:11 *114:10 0.0925698
16 *17:11 *391:12 0.0103616
17 *17:11 *391:16 0.00314578
*RES
1 io_in[24] *17:5 49.365 
2 *17:5 *17:7 4.5 
3 *17:7 *17:8 645.75 
4 *17:8 *17:10 4.5 
5 *17:10 *17:11 469.89 
6 *17:11 *419:io_in[24] 6.615 
*END

*D_NET *18 0.325039
*CONN
*P io_in[25] I
*I *419:io_in[25] I *D tiny_user_project
*CAP
1 io_in[25] 0.000237175
2 *419:io_in[25] 0.000486707
3 *18:19 0.00855531
4 *18:18 0.00806861
5 *18:16 0.0579964
6 *18:15 0.0579964
7 *18:13 0.0102698
8 *18:11 0.010507
9 *18:19 *24:19 0.111221
10 *18:19 *62:8 0
11 *18:19 *383:10 0.00665472
12 *18:19 *407:10 0.00797326
13 *14:14 *18:19 0.0450727
*RES
1 io_in[25] *18:11 2.295 
2 *18:11 *18:13 111.51 
3 *18:13 *18:15 4.5 
4 *18:15 *18:16 578.25 
5 *18:16 *18:18 4.5 
6 *18:18 *18:19 242.01 
7 *18:19 *419:io_in[25] 8.775 
*END

*D_NET *19 0.123018
*CONN
*P io_in[26] I
*I *419:io_in[26] I *D tiny_user_project
*CAP
1 io_in[26] 0.00010158
2 *419:io_in[26] 0.00349083
3 *19:16 0.0327137
4 *19:15 0.0292229
5 *19:13 0.0266121
6 *19:11 0.0267137
7 *19:16 *252:19 0.00416358
8 *14:11 *19:16 0
*RES
1 io_in[26] *19:11 1.215 
2 *19:11 *19:13 289.71 
3 *19:13 *19:15 4.5 
4 *19:15 *19:16 307.71 
5 *19:16 *419:io_in[26] 47.16 
*END

*D_NET *20 0.118032
*CONN
*P io_in[27] I
*I *419:io_in[27] I *D tiny_user_project
*CAP
1 io_in[27] 0.00265416
2 *419:io_in[27] 0.000210588
3 *20:19 0.0287615
4 *20:18 0.0285509
5 *20:16 0.0276002
6 *20:15 0.0302543
7 *20:16 *314:5 0
8 *419:io_in[0] *419:io_in[27] 0
*RES
1 io_in[27] *20:15 29.745 
2 *20:15 *20:16 275.49 
3 *20:16 *20:18 4.5 
4 *20:18 *20:19 299.97 
5 *20:19 *419:io_in[27] 11.34 
*END

*D_NET *21 0.127573
*CONN
*P io_in[28] I
*I *419:io_in[28] I *D tiny_user_project
*CAP
1 io_in[28] 0.000167681
2 *419:io_in[28] 8.21026e-05
3 *21:24 0.00249216
4 *21:16 0.0212728
5 *21:15 0.0188628
6 *21:13 0.0291152
7 *21:11 0.0292829
8 *21:16 *247:11 0
9 *21:16 *400:15 0
10 *21:24 *350:16 0.0262978
*RES
1 io_in[28] *21:11 1.755 
2 *21:11 *21:13 284.31 
3 *21:13 *21:15 4.5 
4 *21:15 *21:16 186.21 
5 *21:16 *21:24 49.41 
6 *21:24 *419:io_in[28] 5.49 
*END

*D_NET *22 0.0926606
*CONN
*P io_in[29] I
*I *419:io_in[29] I *D tiny_user_project
*CAP
1 io_in[29] 0.00191816
2 *419:io_in[29] 0.000149636
3 *22:11 0.0289778
4 *22:10 0.0288282
5 *22:8 0.0154343
6 *22:7 0.0173525
*RES
1 io_in[29] *22:7 24.165 
2 *22:7 *22:8 153.99 
3 *22:8 *22:10 4.5 
4 *22:10 *22:11 302.67 
5 *22:11 *419:io_in[29] 10.71 
*END

*D_NET *23 0.378387
*CONN
*P io_in[2] I
*I *419:io_in[2] I *D tiny_user_project
*CAP
1 io_in[2] 0.000215438
2 *419:io_in[2] 0.000487389
3 *23:19 0.00903855
4 *23:18 0.00855116
5 *23:16 0.0422664
6 *23:15 0.0422664
7 *23:13 0.015741
8 *23:11 0.0159565
9 *419:io_in[2] *419:io_in[3] 0.000219121
10 *419:io_in[2] *94:13 0.000306879
11 *419:io_in[2] *197:16 0.000876481
12 *23:16 *286:13 0
13 *23:19 *419:io_in[3] 0.00820641
14 *23:19 *142:16 0.0634754
15 *23:19 *227:16 0.17078
*RES
1 io_in[2] *23:11 2.115 
2 *23:11 *23:13 165.87 
3 *23:13 *23:15 4.5 
4 *23:15 *23:16 420.21 
5 *23:16 *23:18 4.5 
6 *23:18 *23:19 247.23 
7 *23:19 *419:io_in[2] 16.695 
*END

*D_NET *24 0.296957
*CONN
*P io_in[30] I
*I *419:io_in[30] I *D tiny_user_project
*CAP
1 io_in[30] 0.000237175
2 *419:io_in[30] 0.000407697
3 *24:19 0.0118897
4 *24:18 0.011482
5 *24:16 0.0236686
6 *24:15 0.0236686
7 *24:13 0.017976
8 *24:11 0.0182131
9 *419:io_in[30] *79:9 0.000269286
10 *24:16 *387:17 0
11 *24:19 *46:10 0.0589985
12 *24:19 *62:8 0.00986937
13 *14:14 *24:19 0.0090559
14 *18:19 *24:19 0.111221
*RES
1 io_in[30] *24:11 2.295 
2 *24:11 *24:13 192.51 
3 *24:13 *24:15 4.5 
4 *24:15 *24:16 235.17 
5 *24:16 *24:18 4.5 
6 *24:18 *24:19 285.75 
7 *24:19 *419:io_in[30] 9.135 
*END

*D_NET *25 0.0753077
*CONN
*P io_in[31] I
*I *419:io_in[31] I *D tiny_user_project
*CAP
1 io_in[31] 0.0045758
2 *419:io_in[31] 0.000149636
3 *25:19 0.0265759
4 *25:18 0.0264262
5 *25:16 0.00650221
6 *25:15 0.00650221
7 *25:13 0.0045758
8 *25:19 *363:14 0
*RES
1 io_in[31] *25:13 47.925 
2 *25:13 *25:15 4.5 
3 *25:15 *25:16 64.89 
4 *25:16 *25:18 4.5 
5 *25:18 *25:19 275.67 
6 *25:19 *419:io_in[31] 10.71 
*END

*D_NET *26 0.182492
*CONN
*P io_in[32] I
*I *419:io_in[32] I *D tiny_user_project
*CAP
1 io_in[32] 0.00223414
2 *419:io_in[32] 0.000539264
3 *26:19 0.0369681
4 *26:18 0.0364289
5 *26:16 0.0100477
6 *26:15 0.0122818
7 *419:io_in[32] *253:13 0.00141164
8 *26:19 *419:la_data_in[47] 0
9 *26:19 *419:la_oenb[14] 0
10 *26:19 *419:la_oenb[23] 0.00192726
11 *26:19 *419:wbs_dat_i[25] 0.00379236
12 *26:19 *83:16 0.0346286
13 *26:19 *194:12 0.000559527
14 *26:19 *200:14 0.00653945
15 *26:19 *201:16 0.0126204
16 *26:19 *212:16 0.0033567
17 *26:19 *241:16 0.00462342
18 *26:19 *322:16 0.00865782
19 *26:19 *354:10 0.00466273
20 *26:19 *364:16 0
21 *26:19 *382:16 0.00121223
22 *26:19 *407:10 0
*RES
1 io_in[32] *26:15 27.045 
2 *26:15 *26:16 100.17 
3 *26:16 *26:18 4.5 
4 *26:18 *26:19 504.09 
5 *26:19 *419:io_in[32] 11.655 
*END

*D_NET *27 0.0633965
*CONN
*P io_in[33] I
*I *419:io_in[33] I *D tiny_user_project
*CAP
1 io_in[33] 0.000167681
2 *419:io_in[33] 0.000149636
3 *27:19 0.0259452
4 *27:18 0.0260811
5 *27:13 0.00558533
6 *27:11 0.00546753
*RES
1 io_in[33] *27:11 1.755 
2 *27:11 *27:13 55.71 
3 *27:13 *27:18 11.79 
4 *27:18 *27:19 266.67 
5 *27:19 *419:io_in[33] 10.71 
*END

*D_NET *28 0.112291
*CONN
*P io_in[34] I
*I *419:io_in[34] I *D tiny_user_project
*CAP
1 io_in[34] 0.00644806
2 *419:io_in[34] 0.000149636
3 *28:11 0.0242058
4 *28:10 0.0240562
5 *28:8 0.0254918
6 *28:7 0.0254918
7 *28:5 0.00644806
*RES
1 io_in[34] *28:5 68.265 
2 *28:5 *28:7 4.5 
3 *28:7 *28:8 253.89 
4 *28:8 *28:10 4.5 
5 *28:10 *28:11 254.07 
6 *28:11 *419:io_in[34] 10.71 
*END

*D_NET *29 0.341711
*CONN
*P io_in[35] I
*I *419:io_in[35] I *D tiny_user_project
*CAP
1 io_in[35] 0.000237175
2 *419:io_in[35] 0.000486175
3 *29:19 0.0176694
4 *29:18 0.0171832
5 *29:16 0.0375082
6 *29:15 0.0375082
7 *29:13 0.0187953
8 *29:11 0.0190325
9 *419:io_in[35] *419:io_in[7] 0
10 *29:16 *356:13 0
11 *29:19 *419:la_data_in[4] 0
12 *29:19 *419:la_data_in[54] 0
13 *29:19 *68:8 0
14 *29:19 *163:16 0
15 *29:19 *223:13 0.000313957
16 *29:19 *257:14 0.0254274
17 *29:19 *307:22 0.000338825
18 *29:19 *342:24 0.000960512
19 *29:19 *357:14 0.162697
20 *29:19 *367:14 0.00192722
21 *29:19 *395:8 0.00162572
22 *29:19 *399:8 0
23 *29:19 *402:8 0
*RES
1 io_in[35] *29:11 2.295 
2 *29:11 *29:13 197.91 
3 *29:13 *29:15 4.5 
4 *29:15 *29:16 371.61 
5 *29:16 *29:18 4.5 
6 *29:18 *29:19 321.39 
7 *29:19 *419:io_in[35] 8.505 
*END

*D_NET *30 0.571054
*CONN
*P io_in[36] I
*I *419:io_in[36] I *D tiny_user_project
*CAP
1 io_in[36] 0.00010158
2 *419:io_in[36] 0.00289627
3 *30:16 0.0149392
4 *30:15 0.0120429
5 *30:13 0.0549167
6 *30:11 0.0550183
7 *419:io_in[36] *419:wbs_dat_i[0] 0.000199565
8 *30:16 *37:18 0
9 *30:16 *69:13 0.199532
10 *30:16 *180:13 0.221628
11 *30:16 *336:19 0.00977921
*RES
1 io_in[36] *30:11 1.215 
2 *30:11 *30:13 572.13 
3 *30:13 *30:15 4.5 
4 *30:15 *30:16 405.99 
5 *30:16 *419:io_in[36] 43.56 
*END

*D_NET *31 0.571716
*CONN
*P io_in[37] I
*I *419:io_in[37] I *D tiny_user_project
*CAP
1 io_in[37] 0.000310538
2 *419:io_in[37] 0.00156124
3 *31:16 0.011522
4 *31:15 0.0099608
5 *31:13 0.0497482
6 *31:11 0.0500587
7 *419:io_in[37] *308:9 0