*SPEF "ieee 1481-1999"
*DESIGN "user_project_wrapper"
*DATE "11:11:11 Fri 11 11, 1111"
*VENDOR "OpenRCX"
*PROGRAM "Parallel Extraction"
*VERSION "1.0"
*DESIGN_FLOW "NAME_SCOPE LOCAL" "PIN_CAP NONE"
*DIVIDER /
*DELIMITER :
*BUS_DELIMITER []
*T_UNIT 1 NS
*C_UNIT 1 PF
*R_UNIT 1 OHM
*L_UNIT 1 HENRY

*NAME_MAP
*1 io_in[0]
*2 io_in[10]
*3 io_in[11]
*4 io_in[12]
*5 io_in[13]
*6 io_in[14]
*7 io_in[15]
*8 io_in[16]
*9 io_in[17]
*10 io_in[18]
*11 io_in[19]
*12 io_in[1]
*13 io_in[20]
*14 io_in[21]
*15 io_in[22]
*16 io_in[23]
*17 io_in[24]
*18 io_in[25]
*19 io_in[26]
*20 io_in[27]
*21 io_in[28]
*22 io_in[29]
*23 io_in[2]
*24 io_in[30]
*25 io_in[31]
*26 io_in[32]
*27 io_in[33]
*28 io_in[34]
*29 io_in[35]
*30 io_in[36]
*31 io_in[37]
*32 io_in[3]
*33 io_in[4]
*34 io_in[5]
*35 io_in[6]
*36 io_in[7]
*37 io_in[8]
*38 io_in[9]
*39 io_oeb[0]
*40 io_oeb[10]
*41 io_oeb[11]
*42 io_oeb[12]
*43 io_oeb[13]
*44 io_oeb[14]
*45 io_oeb[15]
*46 io_oeb[16]
*47 io_oeb[17]
*48 io_oeb[18]
*49 io_oeb[19]
*50 io_oeb[1]
*51 io_oeb[20]
*52 io_oeb[21]
*53 io_oeb[22]
*54 io_oeb[23]
*55 io_oeb[24]
*56 io_oeb[25]
*57 io_oeb[26]
*58 io_oeb[27]
*59 io_oeb[28]
*60 io_oeb[29]
*61 io_oeb[2]
*62 io_oeb[30]
*63 io_oeb[31]
*64 io_oeb[32]
*65 io_oeb[33]
*66 io_oeb[34]
*67 io_oeb[35]
*68 io_oeb[36]
*69 io_oeb[37]
*70 io_oeb[3]
*71 io_oeb[4]
*72 io_oeb[5]
*73 io_oeb[6]
*74 io_oeb[7]
*75 io_oeb[8]
*76 io_oeb[9]
*77 io_out[0]
*78 io_out[10]
*79 io_out[11]
*80 io_out[12]
*81 io_out[13]
*82 io_out[14]
*83 io_out[15]
*84 io_out[16]
*85 io_out[17]
*86 io_out[18]
*87 io_out[19]
*88 io_out[1]
*89 io_out[20]
*90 io_out[21]
*91 io_out[22]
*92 io_out[23]
*93 io_out[24]
*94 io_out[25]
*95 io_out[26]
*96 io_out[27]
*97 io_out[28]
*98 io_out[29]
*99 io_out[2]
*100 io_out[30]
*101 io_out[31]
*102 io_out[32]
*103 io_out[33]
*104 io_out[34]
*105 io_out[35]
*106 io_out[36]
*107 io_out[37]
*108 io_out[3]
*109 io_out[4]
*110 io_out[5]
*111 io_out[6]
*112 io_out[7]
*113 io_out[8]
*114 io_out[9]
*115 la_data_in[0]
*116 la_data_in[10]
*117 la_data_in[11]
*118 la_data_in[12]
*119 la_data_in[13]
*120 la_data_in[14]
*121 la_data_in[15]
*122 la_data_in[16]
*123 la_data_in[17]
*124 la_data_in[18]
*125 la_data_in[19]
*126 la_data_in[1]
*127 la_data_in[20]
*128 la_data_in[21]
*129 la_data_in[22]
*130 la_data_in[23]
*131 la_data_in[24]
*132 la_data_in[25]
*133 la_data_in[26]
*134 la_data_in[27]
*135 la_data_in[28]
*136 la_data_in[29]
*137 la_data_in[2]
*138 la_data_in[30]
*139 la_data_in[31]
*140 la_data_in[32]
*141 la_data_in[33]
*142 la_data_in[34]
*143 la_data_in[35]
*144 la_data_in[36]
*145 la_data_in[37]
*146 la_data_in[38]
*147 la_data_in[39]
*148 la_data_in[3]
*149 la_data_in[40]
*150 la_data_in[41]
*151 la_data_in[42]
*152 la_data_in[43]
*153 la_data_in[44]
*154 la_data_in[45]
*155 la_data_in[46]
*156 la_data_in[47]
*157 la_data_in[48]
*158 la_data_in[49]
*159 la_data_in[4]
*160 la_data_in[50]
*161 la_data_in[51]
*162 la_data_in[52]
*163 la_data_in[53]
*164 la_data_in[54]
*165 la_data_in[55]
*166 la_data_in[56]
*167 la_data_in[57]
*168 la_data_in[58]
*169 la_data_in[59]
*170 la_data_in[5]
*171 la_data_in[60]
*172 la_data_in[61]
*173 la_data_in[62]
*174 la_data_in[63]
*175 la_data_in[6]
*176 la_data_in[7]
*177 la_data_in[8]
*178 la_data_in[9]
*179 la_data_out[0]
*180 la_data_out[10]
*181 la_data_out[11]
*182 la_data_out[12]
*183 la_data_out[13]
*184 la_data_out[14]
*185 la_data_out[15]
*186 la_data_out[16]
*187 la_data_out[17]
*188 la_data_out[18]
*189 la_data_out[19]
*190 la_data_out[1]
*191 la_data_out[20]
*192 la_data_out[21]
*193 la_data_out[22]
*194 la_data_out[23]
*195 la_data_out[24]
*196 la_data_out[25]
*197 la_data_out[26]
*198 la_data_out[27]
*199 la_data_out[28]
*200 la_data_out[29]
*201 la_data_out[2]
*202 la_data_out[30]
*203 la_data_out[31]
*204 la_data_out[32]
*205 la_data_out[33]
*206 la_data_out[34]
*207 la_data_out[35]
*208 la_data_out[36]
*209 la_data_out[37]
*210 la_data_out[38]
*211 la_data_out[39]
*212 la_data_out[3]
*213 la_data_out[40]
*214 la_data_out[41]
*215 la_data_out[42]
*216 la_data_out[43]
*217 la_data_out[44]
*218 la_data_out[45]
*219 la_data_out[46]
*220 la_data_out[47]
*221 la_data_out[48]
*222 la_data_out[49]
*223 la_data_out[4]
*224 la_data_out[50]
*225 la_data_out[51]
*226 la_data_out[52]
*227 la_data_out[53]
*228 la_data_out[54]
*229 la_data_out[55]
*230 la_data_out[56]
*231 la_data_out[57]
*232 la_data_out[58]
*233 la_data_out[59]
*234 la_data_out[5]
*235 la_data_out[60]
*236 la_data_out[61]
*237 la_data_out[62]
*238 la_data_out[63]
*239 la_data_out[6]
*240 la_data_out[7]
*241 la_data_out[8]
*242 la_data_out[9]
*243 la_oenb[0]
*244 la_oenb[10]
*245 la_oenb[11]
*246 la_oenb[12]
*247 la_oenb[13]
*248 la_oenb[14]
*249 la_oenb[15]
*250 la_oenb[16]
*251 la_oenb[17]
*252 la_oenb[18]
*253 la_oenb[19]
*254 la_oenb[1]
*255 la_oenb[20]
*256 la_oenb[21]
*257 la_oenb[22]
*258 la_oenb[23]
*259 la_oenb[24]
*260 la_oenb[25]
*261 la_oenb[26]
*262 la_oenb[27]
*263 la_oenb[28]
*264 la_oenb[29]
*265 la_oenb[2]
*266 la_oenb[30]
*267 la_oenb[31]
*268 la_oenb[32]
*269 la_oenb[33]
*270 la_oenb[34]
*271 la_oenb[35]
*272 la_oenb[36]
*273 la_oenb[37]
*274 la_oenb[38]
*275 la_oenb[39]
*276 la_oenb[3]
*277 la_oenb[40]
*278 la_oenb[41]
*279 la_oenb[42]
*280 la_oenb[43]
*281 la_oenb[44]
*282 la_oenb[45]
*283 la_oenb[46]
*284 la_oenb[47]
*285 la_oenb[48]
*286 la_oenb[49]
*287 la_oenb[4]
*288 la_oenb[50]
*289 la_oenb[51]
*290 la_oenb[52]
*291 la_oenb[53]
*292 la_oenb[54]
*293 la_oenb[55]
*294 la_oenb[56]
*295 la_oenb[57]
*296 la_oenb[58]
*297 la_oenb[59]
*298 la_oenb[5]
*299 la_oenb[60]
*300 la_oenb[61]
*301 la_oenb[62]
*302 la_oenb[63]
*303 la_oenb[6]
*304 la_oenb[7]
*305 la_oenb[8]
*306 la_oenb[9]
*307 user_clock2
*308 user_irq[0]
*309 user_irq[1]
*310 user_irq[2]
*313 wb_clk_i
*314 wb_rst_i
*315 wbs_ack_o
*316 wbs_adr_i[0]
*317 wbs_adr_i[10]
*318 wbs_adr_i[11]
*319 wbs_adr_i[12]
*320 wbs_adr_i[13]
*321 wbs_adr_i[14]
*322 wbs_adr_i[15]
*323 wbs_adr_i[16]
*324 wbs_adr_i[17]
*325 wbs_adr_i[18]
*326 wbs_adr_i[19]
*327 wbs_adr_i[1]
*328 wbs_adr_i[20]
*329 wbs_adr_i[21]
*330 wbs_adr_i[22]
*331 wbs_adr_i[23]
*332 wbs_adr_i[24]
*333 wbs_adr_i[25]
*334 wbs_adr_i[26]
*335 wbs_adr_i[27]
*336 wbs_adr_i[28]
*337 wbs_adr_i[29]
*338 wbs_adr_i[2]
*339 wbs_adr_i[30]
*340 wbs_adr_i[31]
*341 wbs_adr_i[3]
*342 wbs_adr_i[4]
*343 wbs_adr_i[5]
*344 wbs_adr_i[6]
*345 wbs_adr_i[7]
*346 wbs_adr_i[8]
*347 wbs_adr_i[9]
*348 wbs_cyc_i
*349 wbs_dat_i[0]
*350 wbs_dat_i[10]
*351 wbs_dat_i[11]
*352 wbs_dat_i[12]
*353 wbs_dat_i[13]
*354 wbs_dat_i[14]
*355 wbs_dat_i[15]
*356 wbs_dat_i[16]
*357 wbs_dat_i[17]
*358 wbs_dat_i[18]
*359 wbs_dat_i[19]
*360 wbs_dat_i[1]
*361 wbs_dat_i[20]
*362 wbs_dat_i[21]
*363 wbs_dat_i[22]
*364 wbs_dat_i[23]
*365 wbs_dat_i[24]
*366 wbs_dat_i[25]
*367 wbs_dat_i[26]
*368 wbs_dat_i[27]
*369 wbs_dat_i[28]
*370 wbs_dat_i[29]
*371 wbs_dat_i[2]
*372 wbs_dat_i[30]
*373 wbs_dat_i[31]
*374 wbs_dat_i[3]
*375 wbs_dat_i[4]
*376 wbs_dat_i[5]
*377 wbs_dat_i[6]
*378 wbs_dat_i[7]
*379 wbs_dat_i[8]
*380 wbs_dat_i[9]
*381 wbs_dat_o[0]
*382 wbs_dat_o[10]
*383 wbs_dat_o[11]
*384 wbs_dat_o[12]
*385 wbs_dat_o[13]
*386 wbs_dat_o[14]
*387 wbs_dat_o[15]
*388 wbs_dat_o[16]
*389 wbs_dat_o[17]
*390 wbs_dat_o[18]
*391 wbs_dat_o[19]
*392 wbs_dat_o[1]
*393 wbs_dat_o[20]
*394 wbs_dat_o[21]
*395 wbs_dat_o[22]
*396 wbs_dat_o[23]
*397 wbs_dat_o[24]
*398 wbs_dat_o[25]
*399 wbs_dat_o[26]
*400 wbs_dat_o[27]
*401 wbs_dat_o[28]
*402 wbs_dat_o[29]
*403 wbs_dat_o[2]
*404 wbs_dat_o[30]
*405 wbs_dat_o[31]
*406 wbs_dat_o[3]
*407 wbs_dat_o[4]
*408 wbs_dat_o[5]
*409 wbs_dat_o[6]
*410 wbs_dat_o[7]
*411 wbs_dat_o[8]
*412 wbs_dat_o[9]
*413 wbs_sel_i[0]
*414 wbs_sel_i[1]
*415 wbs_sel_i[2]
*416 wbs_sel_i[3]
*417 wbs_stb_i
*418 wbs_we_i
*419 u_serv_0
*420 u_serv_1

*PORTS
io_in[0] I
io_in[10] I
io_in[11] I
io_in[12] I
io_in[13] I
io_in[14] I
io_in[15] I
io_in[16] I
io_in[17] I
io_in[18] I
io_in[19] I
io_in[1] I
io_in[20] I
io_in[21] I
io_in[22] I
io_in[23] I
io_in[24] I
io_in[25] I
io_in[26] I
io_in[27] I
io_in[28] I
io_in[29] I
io_in[2] I
io_in[30] I
io_in[31] I
io_in[32] I
io_in[33] I
io_in[34] I
io_in[35] I
io_in[36] I
io_in[37] I
io_in[3] I
io_in[4] I
io_in[5] I
io_in[6] I
io_in[7] I
io_in[8] I
io_in[9] I
io_oeb[0] O
io_oeb[10] O
io_oeb[11] O
io_oeb[12] O
io_oeb[13] O
io_oeb[14] O
io_oeb[15] O
io_oeb[16] O
io_oeb[17] O
io_oeb[18] O
io_oeb[19] O
io_oeb[1] O
io_oeb[20] O
io_oeb[21] O
io_oeb[22] O
io_oeb[23] O
io_oeb[24] O
io_oeb[25] O
io_oeb[26] O
io_oeb[27] O
io_oeb[28] O
io_oeb[29] O
io_oeb[2] O
io_oeb[30] O
io_oeb[31] O
io_oeb[32] O
io_oeb[33] O
io_oeb[34] O
io_oeb[35] O
io_oeb[36] O
io_oeb[37] O
io_oeb[3] O
io_oeb[4] O
io_oeb[5] O
io_oeb[6] O
io_oeb[7] O
io_oeb[8] O
io_oeb[9] O
io_out[0] O
io_out[10] O
io_out[11] O
io_out[12] O
io_out[13] O
io_out[14] O
io_out[15] O
io_out[16] O
io_out[17] O
io_out[18] O
io_out[19] O
io_out[1] O
io_out[20] O
io_out[21] O
io_out[22] O
io_out[23] O
io_out[24] O
io_out[25] O
io_out[26] O
io_out[27] O
io_out[28] O
io_out[29] O
io_out[2] O
io_out[30] O
io_out[31] O
io_out[32] O
io_out[33] O
io_out[34] O
io_out[35] O
io_out[36] O
io_out[37] O
io_out[3] O
io_out[4] O
io_out[5] O
io_out[6] O
io_out[7] O
io_out[8] O
io_out[9] O
la_data_in[0] I
la_data_in[10] I
la_data_in[11] I
la_data_in[12] I
la_data_in[13] I
la_data_in[14] I
la_data_in[15] I
la_data_in[16] I
la_data_in[17] I
la_data_in[18] I
la_data_in[19] I
la_data_in[1] I
la_data_in[20] I
la_data_in[21] I
la_data_in[22] I
la_data_in[23] I
la_data_in[24] I
la_data_in[25] I
la_data_in[26] I
la_data_in[27] I
la_data_in[28] I
la_data_in[29] I
la_data_in[2] I
la_data_in[30] I
la_data_in[31] I
la_data_in[32] I
la_data_in[33] I
la_data_in[34] I
la_data_in[35] I
la_data_in[36] I
la_data_in[37] I
la_data_in[38] I
la_data_in[39] I
la_data_in[3] I
la_data_in[40] I
la_data_in[41] I
la_data_in[42] I
la_data_in[43] I
la_data_in[44] I
la_data_in[45] I
la_data_in[46] I
la_data_in[47] I
la_data_in[48] I
la_data_in[49] I
la_data_in[4] I
la_data_in[50] I
la_data_in[51] I
la_data_in[52] I
la_data_in[53] I
la_data_in[54] I
la_data_in[55] I
la_data_in[56] I
la_data_in[57] I
la_data_in[58] I
la_data_in[59] I
la_data_in[5] I
la_data_in[60] I
la_data_in[61] I
la_data_in[62] I
la_data_in[63] I
la_data_in[6] I
la_data_in[7] I
la_data_in[8] I
la_data_in[9] I
la_data_out[0] O
la_data_out[10] O
la_data_out[11] O
la_data_out[12] O
la_data_out[13] O
la_data_out[14] O
la_data_out[15] O
la_data_out[16] O
la_data_out[17] O
la_data_out[18] O
la_data_out[19] O
la_data_out[1] O
la_data_out[20] O
la_data_out[21] O
la_data_out[22] O
la_data_out[23] O
la_data_out[24] O
la_data_out[25] O
la_data_out[26] O
la_data_out[27] O
la_data_out[28] O
la_data_out[29] O
la_data_out[2] O
la_data_out[30] O
la_data_out[31] O
la_data_out[32] O
la_data_out[33] O
la_data_out[34] O
la_data_out[35] O
la_data_out[36] O
la_data_out[37] O
la_data_out[38] O
la_data_out[39] O
la_data_out[3] O
la_data_out[40] O
la_data_out[41] O
la_data_out[42] O
la_data_out[43] O
la_data_out[44] O
la_data_out[45] O
la_data_out[46] O
la_data_out[47] O
la_data_out[48] O
la_data_out[49] O
la_data_out[4] O
la_data_out[50] O
la_data_out[51] O
la_data_out[52] O
la_data_out[53] O
la_data_out[54] O
la_data_out[55] O
la_data_out[56] O
la_data_out[57] O
la_data_out[58] O
la_data_out[59] O
la_data_out[5] O
la_data_out[60] O
la_data_out[61] O
la_data_out[62] O
la_data_out[63] O
la_data_out[6] O
la_data_out[7] O
la_data_out[8] O
la_data_out[9] O
la_oenb[0] I
la_oenb[10] I
la_oenb[11] I
la_oenb[12] I
la_oenb[13] I
la_oenb[14] I
la_oenb[15] I
la_oenb[16] I
la_oenb[17] I
la_oenb[18] I
la_oenb[19] I
la_oenb[1] I
la_oenb[20] I
la_oenb[21] I
la_oenb[22] I
la_oenb[23] I
la_oenb[24] I
la_oenb[25] I
la_oenb[26] I
la_oenb[27] I
la_oenb[28] I
la_oenb[29] I
la_oenb[2] I
la_oenb[30] I
la_oenb[31] I
la_oenb[32] I
la_oenb[33] I
la_oenb[34] I
la_oenb[35] I
la_oenb[36] I
la_oenb[37] I
la_oenb[38] I
la_oenb[39] I
la_oenb[3] I
la_oenb[40] I
la_oenb[41] I
la_oenb[42] I
la_oenb[43] I
la_oenb[44] I
la_oenb[45] I
la_oenb[46] I
la_oenb[47] I
la_oenb[48] I
la_oenb[49] I
la_oenb[4] I
la_oenb[50] I
la_oenb[51] I
la_oenb[52] I
la_oenb[53] I
la_oenb[54] I
la_oenb[55] I
la_oenb[56] I
la_oenb[57] I
la_oenb[58] I
la_oenb[59] I
la_oenb[5] I
la_oenb[60] I
la_oenb[61] I
la_oenb[62] I
la_oenb[63] I
la_oenb[6] I
la_oenb[7] I
la_oenb[8] I
la_oenb[9] I
user_clock2 I
user_irq[0] O
user_irq[1] O
user_irq[2] O
wb_clk_i I
wb_rst_i I
wbs_ack_o O
wbs_adr_i[0] I
wbs_adr_i[10] I
wbs_adr_i[11] I
wbs_adr_i[12] I
wbs_adr_i[13] I
wbs_adr_i[14] I
wbs_adr_i[15] I
wbs_adr_i[16] I
wbs_adr_i[17] I
wbs_adr_i[18] I
wbs_adr_i[19] I
wbs_adr_i[1] I
wbs_adr_i[20] I
wbs_adr_i[21] I
wbs_adr_i[22] I
wbs_adr_i[23] I
wbs_adr_i[24] I
wbs_adr_i[25] I
wbs_adr_i[26] I
wbs_adr_i[27] I
wbs_adr_i[28] I
wbs_adr_i[29] I
wbs_adr_i[2] I
wbs_adr_i[30] I
wbs_adr_i[31] I
wbs_adr_i[3] I
wbs_adr_i[4] I
wbs_adr_i[5] I
wbs_adr_i[6] I
wbs_adr_i[7] I
wbs_adr_i[8] I
wbs_adr_i[9] I
wbs_cyc_i I
wbs_dat_i[0] I
wbs_dat_i[10] I
wbs_dat_i[11] I
wbs_dat_i[12] I
wbs_dat_i[13] I
wbs_dat_i[14] I
wbs_dat_i[15] I
wbs_dat_i[16] I
wbs_dat_i[17] I
wbs_dat_i[18] I
wbs_dat_i[19] I
wbs_dat_i[1] I
wbs_dat_i[20] I
wbs_dat_i[21] I
wbs_dat_i[22] I
wbs_dat_i[23] I
wbs_dat_i[24] I
wbs_dat_i[25] I
wbs_dat_i[26] I
wbs_dat_i[27] I
wbs_dat_i[28] I
wbs_dat_i[29] I
wbs_dat_i[2] I
wbs_dat_i[30] I
wbs_dat_i[31] I
wbs_dat_i[3] I
wbs_dat_i[4] I
wbs_dat_i[5] I
wbs_dat_i[6] I
wbs_dat_i[7] I
wbs_dat_i[8] I
wbs_dat_i[9] I
wbs_dat_o[0] O
wbs_dat_o[10] O
wbs_dat_o[11] O
wbs_dat_o[12] O
wbs_dat_o[13] O
wbs_dat_o[14] O
wbs_dat_o[15] O
wbs_dat_o[16] O
wbs_dat_o[17] O
wbs_dat_o[18] O
wbs_dat_o[19] O
wbs_dat_o[1] O
wbs_dat_o[20] O
wbs_dat_o[21] O
wbs_dat_o[22] O
wbs_dat_o[23] O
wbs_dat_o[24] O
wbs_dat_o[25] O
wbs_dat_o[26] O
wbs_dat_o[27] O
wbs_dat_o[28] O
wbs_dat_o[29] O
wbs_dat_o[2] O
wbs_dat_o[30] O
wbs_dat_o[31] O
wbs_dat_o[3] O
wbs_dat_o[4] O
wbs_dat_o[5] O
wbs_dat_o[6] O
wbs_dat_o[7] O
wbs_dat_o[8] O
wbs_dat_o[9] O
wbs_sel_i[0] I
wbs_sel_i[1] I
wbs_sel_i[2] I
wbs_sel_i[3] I
wbs_stb_i I
wbs_we_i I

*D_NET *2 0.264889
*CONN
*P io_in[10] I
*I *419:io_in[2] I *D serv_0
*CAP
1 io_in[10] 0.00168227
2 *419:io_in[2] 0.042873
3 *2:14 0.042873
4 *2:12 0.0592492
5 *2:11 0.0592492
6 *2:9 0.0286402
7 *2:7 0.0303225
*RES
1 io_in[10] *2:7 13.005 
2 *2:7 *2:9 222.84 
3 *2:9 *2:11 4.5 
4 *2:11 *2:12 454.95 
5 *2:12 *2:14 4.5 
6 *2:14 *419:io_in[2] 336.645 
*END

*D_NET *3 0.292101
*CONN
*P io_in[11] I
*I *419:io_in[3] I *D serv_0
*CAP
1 io_in[11] 0.000363112
2 *419:io_in[3] 0.0432135
3 *3:18 0.0432135
4 *3:16 0.065648
5 *3:15 0.065648
6 *3:13 0.0368259
7 *3:11 0.037189
8 *3:16 *9:9 0
*RES
1 io_in[11] *3:11 3.195 
2 *3:11 *3:13 232.47 
3 *3:13 *3:15 4.5 
4 *3:15 *3:16 504.27 
5 *3:16 *3:18 4.5 
6 *3:18 *419:io_in[3] 339.345 
*END

*D_NET *4 0.311861
*CONN
*P io_in[12] I
*I *419:io_in[4] I *D serv_0
*CAP
1 io_in[12] 0.000167227
2 *419:io_in[4] 0.0543433
3 *4:18 0.0543433
4 *4:16 0.0723594
5 *4:15 0.0723594
6 *4:13 0.0290605
7 *4:11 0.0292277
*RES
1 io_in[12] *4:11 2.115 
2 *4:11 *4:13 227.07 
3 *4:13 *4:15 4.5 
4 *4:15 *4:16 556.29 
5 *4:16 *4:18 4.5 
6 *4:18 *419:io_in[4] 344.745 
*END

*D_NET *5 0.258092
*CONN
*P io_in[13] I
*I *420:io_in[0] I *D serv_1
*CAP
1 io_in[13] 0.0287037
2 *420:io_in[0] 0.0443196
3 *5:10 0.0443196
4 *5:8 0.0560228
5 *5:7 0.0560228
6 *5:5 0.0287037
*RES
1 io_in[13] *5:5 224.325 
2 *5:5 *5:7 4.5 
3 *5:7 *5:8 431.19 
4 *5:8 *5:10 4.5 
5 *5:10 *420:io_in[0] 347.445 
*END

*D_NET *6 0.292454
*CONN
*P io_in[14] I
*I *420:io_in[1] I *D serv_1
*CAP
1 io_in[14] 0.000264341
2 *420:io_in[1] 0.0556716
3 *6:18 0.0556716
4 *6:16 0.0623818
5 *6:15 0.0623818
6 *6:13 0.0279092
7 *6:11 0.0281735
*RES
1 io_in[14] *6:11 2.655 
2 *6:11 *6:13 218.97 
3 *6:13 *6:15 4.5 
4 *6:15 *6:16 480.51 
5 *6:16 *6:18 4.5 
6 *6:18 *420:io_in[1] 352.845 
*END

*D_NET *7 0.277336
*CONN
*P io_in[15] I
*I *420:io_in[2] I *D serv_1
*CAP
1 io_in[15] 0.0678709
2 *420:io_in[2] 0.0707974
3 *7:7 0.0707974
4 *7:5 0.0678709
*RES
1 io_in[15] *7:5 523.125 
2 *7:5 *7:7 4.5 
3 *7:7 *420:io_in[2] 554.085 
*END

*D_NET *8 0.246962
*CONN
*P io_in[16] I
*I *420:io_in[3] I *D serv_1
*CAP
1 io_in[16] 0.000247817
2 *420:io_in[3] 0.0569816
3 *8:15 0.0569816
4 *8:13 0.0662516
5 *8:11 0.0664994
*RES
1 io_in[16] *8:11 2.655 
2 *8:11 *8:13 510.39 
3 *8:13 *8:15 4.5 
4 *8:15 *420:io_in[3] 446.085 
*END

*D_NET *9 0.216017
*CONN
*P io_in[17] I
*I *420:io_in[4] I *D serv_1
*CAP
1 io_in[17] 0.00165467
2 *420:io_in[4] 0.0434032
3 *9:11 0.0434032
4 *9:9 0.0629505
5 *9:7 0.0646051
6 *3:16 *9:9 0
*RES
1 io_in[17] *9:7 13.005 
2 *9:7 *9:9 485.28 
3 *9:9 *9:11 4.5 
4 *9:11 *420:io_in[4] 340.785 
*END

*D_NET *37 0.238142
*CONN
*P io_in[8] I
*I *419:io_in[0] I *D serv_0
*CAP
1 io_in[8] 0.0277106
2 *419:io_in[0] 0.0453399
3 *37:10 0.0453399
4 *37:8 0.0460205
5 *37:7 0.0460205
6 *37:5 0.0277106
*RES
1 io_in[8] *37:5 216.225 
2 *37:5 *37:7 4.5 
3 *37:7 *37:8 353.61 
4 *37:8 *37:10 4.5 
5 *37:10 *419:io_in[0] 355.545 
*END

*D_NET *38 0.273159
*CONN
*P io_in[9] I
*I *419:io_in[1] I *D serv_0
*CAP
1 io_in[9] 0.000251703
2 *419:io_in[1] 0.0564555
3 *38:18 0.0564555
4 *38:16 0.0524627
5 *38:15 0.0524627
6 *38:13 0.0274098
7 *38:11 0.0276615
*RES
1 io_in[9] *38:11 2.655 
2 *38:11 *38:13 213.57 
3 *38:13 *38:15 4.5 
4 *38:15 *38:16 402.93 
5 *38:16 *38:18 4.5 
6 *38:18 *419:io_in[1] 358.245 
*END

*D_NET *40 0.242542
*CONN
*P io_oeb[10] O
*I *419:io_oeb[2] O *D serv_0
*CAP
1 io_oeb[10] 0.0270202
2 *419:io_oeb[2] 0.0460724
3 *40:10 0.0270202
4 *40:8 0.0481784
5 *40:7 0.0481784
6 *40:5 0.0460724
*RES
1 *419:io_oeb[2] *40:5 360.945 
2 *40:5 *40:7 4.5 
3 *40:7 *40:8 370.35 
4 *40:8 *40:10 4.5 
5 *40:10 io_oeb[10] 210.825 
*END

*D_NET *41 0.44939
*CONN
*P io_oeb[11] O
*I *419:io_oeb[3] O *D serv_0
*CAP
1 io_oeb[11] 0.00104661
2 *419:io_oeb[3] 0.0719397
3 *41:8 0.00347391
4 *41:7 0.0024273
5 *41:5 0.0719397
6 *41:8 *42:8 0.0180065
7 *41:8 *44:8 0.0150742
8 *41:8 *75:8 0.0269008
9 *41:8 *78:8 0.13217
10 *41:8 *79:8 0.000435416
11 *41:8 *82:8 0.105976
*RES
1 *419:io_oeb[3] *41:5 563.625 
2 *41:5 *41:7 4.5 
3 *41:7 *41:8 421.11 
4 *41:8 io_oeb[11] 12.645 
*END

*D_NET *42 0.521539
*CONN
*P io_oeb[12] O
*I *419:io_oeb[4] O *D serv_0
*CAP
1 io_oeb[12] 0.00103967
2 *419:io_oeb[4] 0.0719465
3 *42:8 0.00869004
4 *42:7 0.00765037
5 *42:5 0.0719465
6 *42:8 *44:8 0.00206972
7 *42:8 *79:8 0.15632
8 *42:8 *80:8 0.182036
9 *42:8 *81:8 0.00183386
10 *41:8 *42:8 0.0180065
*RES
1 *419:io_oeb[4] *42:5 563.625 
2 *42:5 *42:7 4.5 
3 *42:7 *42:8 472.05 
4 *42:8 io_oeb[12] 12.645 
*END

*D_NET *43 0.330022
*CONN
*P io_oeb[13] O
*I *420:io_oeb[0] O *D serv_1
*CAP
1 io_oeb[13] 0.000880561
2 *420:io_oeb[0] 0.0891933
3 *43:8 0.0203989
4 *43:7 0.0195183
5 *43:5 0.0891933
6 *43:8 *44:8 0.00251512
7 *43:8 *76:8 0.0357383
8 *43:8 *81:8 0.0451914
9 *43:8 *114:8 0.0273931
*RES
1 *420:io_oeb[0] *43:5 564.525 
2 *43:5 *43:7 4.5 
3 *43:7 *43:8 345.87 
4 *43:8 io_oeb[13] 11.745 
*END

*D_NET *44 0.382783
*CONN
*P io_oeb[14] O
*I *420:io_oeb[1] O *D serv_1
*CAP
1 io_oeb[14] 0.000945234
2 *420:io_oeb[1] 0.0721567
3 *44:8 0.0112629
4 *44:7 0.0103177
5 *44:5 0.0721567
6 *44:8 *78:8 0.047443
7 *44:8 *79:8 0.00632602
8 *44:8 *81:8 0.122558
9 *44:8 *82:8 0.0199578
10 *41:8 *44:8 0.0150742
11 *42:8 *44:8 0.00206972
12 *43:8 *44:8 0.00251512
*RES
1 *420:io_oeb[1] *44:5 563.985 
2 *44:5 *44:7 4.5 
3 *44:7 *44:8 396.81 
4 *44:8 io_oeb[14] 12.285 
*END

*D_NET *45 0.226032
*CONN
*P io_oeb[15] O
*I *420:io_oeb[2] O *D serv_1
*CAP
1 io_oeb[15] 0.00029378
2 *420:io_oeb[2] 0.0614571
3 *45:8 0.0515588
4 *45:7 0.051265
5 *45:5 0.0614571
*RES
1 *420:io_oeb[2] *45:5 481.185 
2 *45:5 *45:7 4.5 
3 *45:7 *45:8 395.37 
4 *45:8 io_oeb[15] 3.015 
*END

*D_NET *46 0.195591
*CONN
*P io_oeb[16] O
*I *420:io_oeb[3] O *D serv_1
*CAP
1 io_oeb[16] 0.000155891
2 *420:io_oeb[3] 0.048049
3 *46:8 0.0497465
4 *46:7 0.0495906
5 *46:5 0.048049
*RES
1 *420:io_oeb[3] *46:5 375.885 
2 *46:5 *46:7 4.5 
3 *46:7 *46:8 382.59 
4 *46:8 io_oeb[16] 1.935 
*END

*D_NET *47 0.164684
*CONN
*P io_oeb[17] O
*I *420:io_oeb[4] O *D serv_1
*CAP
1 io_oeb[17] 0.0478384
2 *420:io_oeb[4] 0.0345038
3 *47:7 0.0478384
4 *47:5 0.0345038
*RES
1 *420:io_oeb[4] *47:5 270.585 
2 *47:5 *47:7 4.5 
3 *47:7 io_oeb[17] 369.765 
*END

*D_NET *75 0.299969
*CONN
*P io_oeb[8] O
*I *419:io_oeb[0] O *D serv_0
*CAP
1 io_oeb[8] 0.00119594
2 *419:io_oeb[0] 0.0887852
3 *75:8 0.0208885
4 *75:7 0.0196925
5 *75:5 0.0887852
6 *75:8 *78:8 0.00449106
7 *75:8 *80:8 0.0184245
8 *75:8 *82:8 0.0308056
9 *41:8 *75:8 0.0269008
*RES
1 *419:io_oeb[0] *75:5 563.265 
2 *75:5 *75:7 4.5 
3 *75:7 *75:8 268.29 
4 *75:8 io_oeb[8] 13.005 
*END

*D_NET *76 0.267992
*CONN
*P io_oeb[9] O
*I *419:io_oeb[1] O *D serv_0
*CAP
1 io_oeb[9] 0.000859003
2 *419:io_oeb[1] 0.0721124
3 *76:8 0.0237281
4 *76:7 0.0228691
5 *76:5 0.0721124
6 *76:8 *114:8 0.0405731
7 *43:8 *76:8 0.0357383
*RES
1 *419:io_oeb[1] *76:5 564.705 
2 *76:5 *76:7 4.5 
3 *76:7 *76:8 319.23 
4 *76:8 io_oeb[9] 11.565 
*END

*D_NET *78 0.469205
*CONN
*P io_out[10] O
*I *419:io_out[2] O *D serv_0
*CAP
1 io_out[10] 0.00102505
2 *419:io_out[2] 0.07191
3 *78:8 0.00453886
4 *78:7 0.0035138
5 *78:5 0.07191
6 *78:8 *79:8 0.0187741
7 *78:8 *81:8 0.00120632
8 *78:8 *113:8 0.112223
9 *41:8 *78:8 0.13217
10 *44:8 *78:8 0.047443
11 *75:8 *78:8 0.00449106
*RES
1 *419:io_out[2] *78:5 563.805 
2 *78:5 *78:7 4.5 
3 *78:7 *78:8 412.83 
4 *78:8 io_out[10] 12.465 
*END

*D_NET *79 0.427348
*CONN
*P io_out[11] O
*I *419:io_out[3] O *D serv_0
*CAP
1 io_out[11] 0.00101811
2 *419:io_out[3] 0.0719168
3 *79:8 0.030952
4 *79:7 0.0299339
5 *79:5 0.0719168
6 *79:8 *80:8 0.0121449
7 *79:8 *81:8 0.00849118
8 *79:8 *113:8 0.00939109
9 *79:8 *114:8 0.00972705
10 *41:8 *79:8 0.000435416
11 *42:8 *79:8 0.15632
12 *44:8 *79:8 0.00632602
13 *78:8 *79:8 0.0187741
*RES
1 *419:io_out[3] *79:5 563.805 
2 *79:5 *79:7 4.5 
3 *79:7 *79:8 463.77 
4 *79:8 io_out[11] 12.465 
*END

*D_NET *80 0.447757
*CONN
*P io_out[12] O
*I *419:io_out[4] O *D serv_0
*CAP
1 io_out[12] 0.00133579
2 *419:io_out[4] 0.0718667
3 *80:8 0.0336875
4 *80:7 0.0323518
5 *80:5 0.0718667
6 *80:8 *82:8 0.0240432
7 *42:8 *80:8 0.182036
8 *75:8 *80:8 0.0184245
9 *79:8 *80:8 0.0121449
*RES
1 *419:io_out[4] *80:5 563.445 
2 *80:5 *80:7 4.5 
3 *80:7 *80:8 514.71 
4 *80:8 io_out[12] 12.825 
*END

*D_NET *81 0.410891
*CONN
*P io_out[13] O
*I *420:io_out[0] O *D serv_1
*CAP
1 io_out[13] 0.000940833
2 *420:io_out[0] 0.0721597
3 *81:8 0.0036446
4 *81:7 0.00270376
5 *81:5 0.0721597
6 *81:8 *113:8 0.0274741
7 *81:8 *114:8 0.0525274
8 *42:8 *81:8 0.00183386
9 *43:8 *81:8 0.0451914
10 *44:8 *81:8 0.122558
11 *78:8 *81:8 0.00120632
12 *79:8 *81:8 0.00849118
*RES
1 *420:io_out[0] *81:5 564.165 
2 *81:5 *81:7 4.5 
3 *81:7 *81:8 388.53 
4 *81:8 io_out[13] 12.105 
*END

*D_NET *82 0.380718
*CONN
*P io_out[14] O
*I *420:io_out[1] O *D serv_1
*CAP
1 io_out[14] 0.00102706
2 *420:io_out[1] 0.0719938
3 *82:8 0.0279737
4 *82:7 0.0269467
5 *82:5 0.0719938
6 *41:8 *82:8 0.105976
7 *44:8 *82:8 0.0199578
8 *75:8 *82:8 0.0308056
9 *80:8 *82:8 0.0240432
*RES
1 *420:io_out[1] *82:5 563.445 
2 *82:5 *82:7 4.5 
3 *82:7 *82:8 439.47 
4 *82:8 io_out[14] 12.825 
*END

*D_NET *83 0.313009
*CONN
*P io_out[15] O
*I *420:io_out[2] O *D serv_1
*CAP
1 io_out[15] 0.000404395
2 *420:io_out[2] 0.0814147
3 *83:8 0.0750896
4 *83:7 0.0746852
5 *83:5 0.0814147
*RES
1 *420:io_out[2] *83:5 516.285 
2 *83:5 *83:7 4.5 
3 *83:7 *83:8 459.27 
4 *83:8 io_out[15] 3.375 
*END

*D_NET *84 0.221421
*CONN
*P io_out[16] O
*I *420:io_out[3] O *D serv_1
*CAP
1 io_out[16] 0.000201854
2 *420:io_out[3] 0.0525916
3 *84:8 0.0581189
4 *84:7 0.0579171
5 *84:5 0.0525916
*RES
1 *420:io_out[3] *84:5 410.985 
2 *84:5 *84:7 4.5 
3 *84:7 *84:8 446.49 
4 *84:8 io_out[16] 2.295 
*END

*D_NET *85 0.190313
*CONN
*P io_out[17] O
*I *420:io_out[4] O *D serv_1
*CAP
1 io_out[17] 0.00160871
2 *420:io_out[4] 0.0389448
3 *85:8 0.0562119
4 *85:7 0.0546032
5 *85:5 0.0389448
*RES
1 *420:io_out[4] *85:5 305.685 
2 *85:5 *85:7 4.5 
3 *85:7 *85:8 421.38 
4 *85:8 io_out[17] 12.645 
*END

*D_NET *113 0.345023
*CONN
*P io_out[8] O
*I *419:io_out[0] O *D serv_0
*CAP
1 io_out[8] 0.00101392
2 *419:io_out[0] 0.0719316
3 *113:8 0.00575977
4 *113:7 0.00474585
5 *113:5 0.0719316
6 *113:8 *114:8 0.0405525
7 *78:8 *113:8 0.112223
8 *79:8 *113:8 0.00939109
9 *81:8 *113:8 0.0274741
*RES
1 *419:io_out[0] *113:5 563.985 
2 *113:5 *113:7 4.5 
3 *113:7 *113:8 310.95 
4 *113:8 io_out[8] 12.285 
*END

*D_NET *114 0.333645
*CONN
*P io_out[9] O
*I *419:io_out[1] O *D serv_0
*CAP
1 io_out[9] 0.000936463
2 *419:io_out[1] 0.0719919
3 *114:8 0.00944385
4 *114:7 0.00850739
5 *114:5 0.0719919
6 *43:8 *114:8 0.0273931
7 *76:8 *114:8 0.0405731
8 *79:8 *114:8 0.00972705
9 *81:8 *114:8 0.0525274
10 *113:8 *114:8 0.0405525
*RES
1 *419:io_out[1] *114:5 564.345 
2 *114:5 *114:7 4.5 
3 *114:7 *114:8 361.89 
4 *114:8 io_out[9] 11.925 
*END
