*SPEF "ieee 1481-1999"
*DESIGN "user_project_wrapper"
*DATE "11:11:11 Fri 11 11, 1111"
*VENDOR "OpenRCX"
*PROGRAM "Parallel Extraction"
*VERSION "1.0"
*DESIGN_FLOW "NAME_SCOPE LOCAL" "PIN_CAP NONE"
*DIVIDER /
*DELIMITER :
*BUS_DELIMITER []
*T_UNIT 1 NS
*C_UNIT 1 PF
*R_UNIT 1 OHM
*L_UNIT 1 HENRY

*NAME_MAP
*1 io_in[0]
*2 io_in[10]
*3 io_in[11]
*4 io_in[12]
*5 io_in[13]
*6 io_in[14]
*7 io_in[15]
*8 io_in[16]
*9 io_in[17]
*10 io_in[18]
*11 io_in[19]
*12 io_in[1]
*13 io_in[20]
*14 io_in[21]
*15 io_in[22]
*16 io_in[23]
*17 io_in[24]
*18 io_in[25]
*19 io_in[26]
*20 io_in[27]
*21 io_in[28]
*22 io_in[29]
*23 io_in[2]
*24 io_in[30]
*25 io_in[31]
*26 io_in[32]
*27 io_in[33]
*28 io_in[34]
*29 io_in[35]
*30 io_in[36]
*31 io_in[37]
*32 io_in[3]
*33 io_in[4]
*34 io_in[5]
*35 io_in[6]
*36 io_in[7]
*37 io_in[8]
*38 io_in[9]
*39 io_oeb[0]
*40 io_oeb[10]
*41 io_oeb[11]
*42 io_oeb[12]
*43 io_oeb[13]
*44 io_oeb[14]
*45 io_oeb[15]
*46 io_oeb[16]
*47 io_oeb[17]
*48 io_oeb[18]
*49 io_oeb[19]
*50 io_oeb[1]
*51 io_oeb[20]
*52 io_oeb[21]
*53 io_oeb[22]
*54 io_oeb[23]
*55 io_oeb[24]
*56 io_oeb[25]
*57 io_oeb[26]
*58 io_oeb[27]
*59 io_oeb[28]
*60 io_oeb[29]
*61 io_oeb[2]
*62 io_oeb[30]
*63 io_oeb[31]
*64 io_oeb[32]
*65 io_oeb[33]
*66 io_oeb[34]
*67 io_oeb[35]
*68 io_oeb[36]
*69 io_oeb[37]
*70 io_oeb[3]
*71 io_oeb[4]
*72 io_oeb[5]
*73 io_oeb[6]
*74 io_oeb[7]
*75 io_oeb[8]
*76 io_oeb[9]
*77 io_out[0]
*78 io_out[10]
*79 io_out[11]
*80 io_out[12]
*81 io_out[13]
*82 io_out[14]
*83 io_out[15]
*84 io_out[16]
*85 io_out[17]
*86 io_out[18]
*87 io_out[19]
*88 io_out[1]
*89 io_out[20]
*90 io_out[21]
*91 io_out[22]
*92 io_out[23]
*93 io_out[24]
*94 io_out[25]
*95 io_out[26]
*96 io_out[27]
*97 io_out[28]
*98 io_out[29]
*99 io_out[2]
*100 io_out[30]
*101 io_out[31]
*102 io_out[32]
*103 io_out[33]
*104 io_out[34]
*105 io_out[35]
*106 io_out[36]
*107 io_out[37]
*108 io_out[3]
*109 io_out[4]
*110 io_out[5]
*111 io_out[6]
*112 io_out[7]
*113 io_out[8]
*114 io_out[9]
*115 la_data_in[0]
*116 la_data_in[10]
*117 la_data_in[11]
*118 la_data_in[12]
*119 la_data_in[13]
*120 la_data_in[14]
*121 la_data_in[15]
*122 la_data_in[16]
*123 la_data_in[17]
*124 la_data_in[18]
*125 la_data_in[19]
*126 la_data_in[1]
*127 la_data_in[20]
*128 la_data_in[21]
*129 la_data_in[22]
*130 la_data_in[23]
*131 la_data_in[24]
*132 la_data_in[25]
*133 la_data_in[26]
*134 la_data_in[27]
*135 la_data_in[28]
*136 la_data_in[29]
*137 la_data_in[2]
*138 la_data_in[30]
*139 la_data_in[31]
*140 la_data_in[32]
*141 la_data_in[33]
*142 la_data_in[34]
*143 la_data_in[35]
*144 la_data_in[36]
*145 la_data_in[37]
*146 la_data_in[38]
*147 la_data_in[39]
*148 la_data_in[3]
*149 la_data_in[40]
*150 la_data_in[41]
*151 la_data_in[42]
*152 la_data_in[43]
*153 la_data_in[44]
*154 la_data_in[45]
*155 la_data_in[46]
*156 la_data_in[47]
*157 la_data_in[48]
*158 la_data_in[49]
*159 la_data_in[4]
*160 la_data_in[50]
*161 la_data_in[51]
*162 la_data_in[52]
*163 la_data_in[53]
*164 la_data_in[54]
*165 la_data_in[55]
*166 la_data_in[56]
*167 la_data_in[57]
*168 la_data_in[58]
*169 la_data_in[59]
*170 la_data_in[5]
*171 la_data_in[60]
*172 la_data_in[61]
*173 la_data_in[62]
*174 la_data_in[63]
*175 la_data_in[6]
*176 la_data_in[7]
*177 la_data_in[8]
*178 la_data_in[9]
*179 la_data_out[0]
*180 la_data_out[10]
*181 la_data_out[11]
*182 la_data_out[12]
*183 la_data_out[13]
*184 la_data_out[14]
*185 la_data_out[15]
*186 la_data_out[16]
*187 la_data_out[17]
*188 la_data_out[18]
*189 la_data_out[19]
*190 la_data_out[1]
*191 la_data_out[20]
*192 la_data_out[21]
*193 la_data_out[22]
*194 la_data_out[23]
*195 la_data_out[24]
*196 la_data_out[25]
*197 la_data_out[26]
*198 la_data_out[27]
*199 la_data_out[28]
*200 la_data_out[29]
*201 la_data_out[2]
*202 la_data_out[30]
*203 la_data_out[31]
*204 la_data_out[32]
*205 la_data_out[33]
*206 la_data_out[34]
*207 la_data_out[35]
*208 la_data_out[36]
*209 la_data_out[37]
*210 la_data_out[38]
*211 la_data_out[39]
*212 la_data_out[3]
*213 la_data_out[40]
*214 la_data_out[41]
*215 la_data_out[42]
*216 la_data_out[43]
*217 la_data_out[44]
*218 la_data_out[45]
*219 la_data_out[46]
*220 la_data_out[47]
*221 la_data_out[48]
*222 la_data_out[49]
*223 la_data_out[4]
*224 la_data_out[50]
*225 la_data_out[51]
*226 la_data_out[52]
*227 la_data_out[53]
*228 la_data_out[54]
*229 la_data_out[55]
*230 la_data_out[56]
*231 la_data_out[57]
*232 la_data_out[58]
*233 la_data_out[59]
*234 la_data_out[5]
*235 la_data_out[60]
*236 la_data_out[61]
*237 la_data_out[62]
*238 la_data_out[63]
*239 la_data_out[6]
*240 la_data_out[7]
*241 la_data_out[8]
*242 la_data_out[9]
*243 la_oenb[0]
*244 la_oenb[10]
*245 la_oenb[11]
*246 la_oenb[12]
*247 la_oenb[13]
*248 la_oenb[14]
*249 la_oenb[15]
*250 la_oenb[16]
*251 la_oenb[17]
*252 la_oenb[18]
*253 la_oenb[19]
*254 la_oenb[1]
*255 la_oenb[20]
*256 la_oenb[21]
*257 la_oenb[22]
*258 la_oenb[23]
*259 la_oenb[24]
*260 la_oenb[25]
*261 la_oenb[26]
*262 la_oenb[27]
*263 la_oenb[28]
*264 la_oenb[29]
*265 la_oenb[2]
*266 la_oenb[30]
*267 la_oenb[31]
*268 la_oenb[32]
*269 la_oenb[33]
*270 la_oenb[34]
*271 la_oenb[35]
*272 la_oenb[36]
*273 la_oenb[37]
*274 la_oenb[38]
*275 la_oenb[39]
*276 la_oenb[3]
*277 la_oenb[40]
*278 la_oenb[41]
*279 la_oenb[42]
*280 la_oenb[43]
*281 la_oenb[44]
*282 la_oenb[45]
*283 la_oenb[46]
*284 la_oenb[47]
*285 la_oenb[48]
*286 la_oenb[49]
*287 la_oenb[4]
*288 la_oenb[50]
*289 la_oenb[51]
*290 la_oenb[52]
*291 la_oenb[53]
*292 la_oenb[54]
*293 la_oenb[55]
*294 la_oenb[56]
*295 la_oenb[57]
*296 la_oenb[58]
*297 la_oenb[59]
*298 la_oenb[5]
*299 la_oenb[60]
*300 la_oenb[61]
*301 la_oenb[62]
*302 la_oenb[63]
*303 la_oenb[6]
*304 la_oenb[7]
*305 la_oenb[8]
*306 la_oenb[9]
*307 user_clock2
*308 user_irq[0]
*309 user_irq[1]
*310 user_irq[2]
*313 wb_clk_i
*314 wb_rst_i
*315 wbs_ack_o
*316 wbs_adr_i[0]
*317 wbs_adr_i[10]
*318 wbs_adr_i[11]
*319 wbs_adr_i[12]
*320 wbs_adr_i[13]
*321 wbs_adr_i[14]
*322 wbs_adr_i[15]
*323 wbs_adr_i[16]
*324 wbs_adr_i[17]
*325 wbs_adr_i[18]
*326 wbs_adr_i[19]
*327 wbs_adr_i[1]
*328 wbs_adr_i[20]
*329 wbs_adr_i[21]
*330 wbs_adr_i[22]
*331 wbs_adr_i[23]
*332 wbs_adr_i[24]
*333 wbs_adr_i[25]
*334 wbs_adr_i[26]
*335 wbs_adr_i[27]
*336 wbs_adr_i[28]
*337 wbs_adr_i[29]
*338 wbs_adr_i[2]
*339 wbs_adr_i[30]
*340 wbs_adr_i[31]
*341 wbs_adr_i[3]
*342 wbs_adr_i[4]
*343 wbs_adr_i[5]
*344 wbs_adr_i[6]
*345 wbs_adr_i[7]
*346 wbs_adr_i[8]
*347 wbs_adr_i[9]
*348 wbs_cyc_i
*349 wbs_dat_i[0]
*350 wbs_dat_i[10]
*351 wbs_dat_i[11]
*352 wbs_dat_i[12]
*353 wbs_dat_i[13]
*354 wbs_dat_i[14]
*355 wbs_dat_i[15]
*356 wbs_dat_i[16]
*357 wbs_dat_i[17]
*358 wbs_dat_i[18]
*359 wbs_dat_i[19]
*360 wbs_dat_i[1]
*361 wbs_dat_i[20]
*362 wbs_dat_i[21]
*363 wbs_dat_i[22]
*364 wbs_dat_i[23]
*365 wbs_dat_i[24]
*366 wbs_dat_i[25]
*367 wbs_dat_i[26]
*368 wbs_dat_i[27]
*369 wbs_dat_i[28]
*370 wbs_dat_i[29]
*371 wbs_dat_i[2]
*372 wbs_dat_i[30]
*373 wbs_dat_i[31]
*374 wbs_dat_i[3]
*375 wbs_dat_i[4]
*376 wbs_dat_i[5]
*377 wbs_dat_i[6]
*378 wbs_dat_i[7]
*379 wbs_dat_i[8]
*380 wbs_dat_i[9]
*381 wbs_dat_o[0]
*382 wbs_dat_o[10]
*383 wbs_dat_o[11]
*384 wbs_dat_o[12]
*385 wbs_dat_o[13]
*386 wbs_dat_o[14]
*387 wbs_dat_o[15]
*388 wbs_dat_o[16]
*389 wbs_dat_o[17]
*390 wbs_dat_o[18]
*391 wbs_dat_o[19]
*392 wbs_dat_o[1]
*393 wbs_dat_o[20]
*394 wbs_dat_o[21]
*395 wbs_dat_o[22]
*396 wbs_dat_o[23]
*397 wbs_dat_o[24]
*398 wbs_dat_o[25]
*399 wbs_dat_o[26]
*400 wbs_dat_o[27]
*401 wbs_dat_o[28]
*402 wbs_dat_o[29]
*403 wbs_dat_o[2]
*404 wbs_dat_o[30]
*405 wbs_dat_o[31]
*406 wbs_dat_o[3]
*407 wbs_dat_o[4]
*408 wbs_dat_o[5]
*409 wbs_dat_o[6]
*410 wbs_dat_o[7]
*411 wbs_dat_o[8]
*412 wbs_dat_o[9]
*413 wbs_sel_i[0]
*414 wbs_sel_i[1]
*415 wbs_sel_i[2]
*416 wbs_sel_i[3]
*417 wbs_stb_i
*418 wbs_we_i
*419 mprj

*PORTS
io_in[0] I
io_in[10] I
io_in[11] I
io_in[12] I
io_in[13] I
io_in[14] I
io_in[15] I
io_in[16] I
io_in[17] I
io_in[18] I
io_in[19] I
io_in[1] I
io_in[20] I
io_in[21] I
io_in[22] I
io_in[23] I
io_in[24] I
io_in[25] I
io_in[26] I
io_in[27] I
io_in[28] I
io_in[29] I
io_in[2] I
io_in[30] I
io_in[31] I
io_in[32] I
io_in[33] I
io_in[34] I
io_in[35] I
io_in[36] I
io_in[37] I
io_in[3] I
io_in[4] I
io_in[5] I
io_in[6] I
io_in[7] I
io_in[8] I
io_in[9] I
io_oeb[0] O
io_oeb[10] O
io_oeb[11] O
io_oeb[12] O
io_oeb[13] O
io_oeb[14] O
io_oeb[15] O
io_oeb[16] O
io_oeb[17] O
io_oeb[18] O
io_oeb[19] O
io_oeb[1] O
io_oeb[20] O
io_oeb[21] O
io_oeb[22] O
io_oeb[23] O
io_oeb[24] O
io_oeb[25] O
io_oeb[26] O
io_oeb[27] O
io_oeb[28] O
io_oeb[29] O
io_oeb[2] O
io_oeb[30] O
io_oeb[31] O
io_oeb[32] O
io_oeb[33] O
io_oeb[34] O
io_oeb[35] O
io_oeb[36] O
io_oeb[37] O
io_oeb[3] O
io_oeb[4] O
io_oeb[5] O
io_oeb[6] O
io_oeb[7] O
io_oeb[8] O
io_oeb[9] O
io_out[0] O
io_out[10] O
io_out[11] O
io_out[12] O
io_out[13] O
io_out[14] O
io_out[15] O
io_out[16] O
io_out[17] O
io_out[18] O
io_out[19] O
io_out[1] O
io_out[20] O
io_out[21] O
io_out[22] O
io_out[23] O
io_out[24] O
io_out[25] O
io_out[26] O
io_out[27] O
io_out[28] O
io_out[29] O
io_out[2] O
io_out[30] O
io_out[31] O
io_out[32] O
io_out[33] O
io_out[34] O
io_out[35] O
io_out[36] O
io_out[37] O
io_out[3] O
io_out[4] O
io_out[5] O
io_out[6] O
io_out[7] O
io_out[8] O
io_out[9] O
la_data_in[0] I
la_data_in[10] I
la_data_in[11] I
la_data_in[12] I
la_data_in[13] I
la_data_in[14] I
la_data_in[15] I
la_data_in[16] I
la_data_in[17] I
la_data_in[18] I
la_data_in[19] I
la_data_in[1] I
la_data_in[20] I
la_data_in[21] I
la_data_in[22] I
la_data_in[23] I
la_data_in[24] I
la_data_in[25] I
la_data_in[26] I
la_data_in[27] I
la_data_in[28] I
la_data_in[29] I
la_data_in[2] I
la_data_in[30] I
la_data_in[31] I
la_data_in[32] I
la_data_in[33] I
la_data_in[34] I
la_data_in[35] I
la_data_in[36] I
la_data_in[37] I
la_data_in[38] I
la_data_in[39] I
la_data_in[3] I
la_data_in[40] I
la_data_in[41] I
la_data_in[42] I
la_data_in[43] I
la_data_in[44] I
la_data_in[45] I
la_data_in[46] I
la_data_in[47] I
la_data_in[48] I
la_data_in[49] I
la_data_in[4] I
la_data_in[50] I
la_data_in[51] I
la_data_in[52] I
la_data_in[53] I
la_data_in[54] I
la_data_in[55] I
la_data_in[56] I
la_data_in[57] I
la_data_in[58] I
la_data_in[59] I
la_data_in[5] I
la_data_in[60] I
la_data_in[61] I
la_data_in[62] I
la_data_in[63] I
la_data_in[6] I
la_data_in[7] I
la_data_in[8] I
la_data_in[9] I
la_data_out[0] O
la_data_out[10] O
la_data_out[11] O
la_data_out[12] O
la_data_out[13] O
la_data_out[14] O
la_data_out[15] O
la_data_out[16] O
la_data_out[17] O
la_data_out[18] O
la_data_out[19] O
la_data_out[1] O
la_data_out[20] O
la_data_out[21] O
la_data_out[22] O
la_data_out[23] O
la_data_out[24] O
la_data_out[25] O
la_data_out[26] O
la_data_out[27] O
la_data_out[28] O
la_data_out[29] O
la_data_out[2] O
la_data_out[30] O
la_data_out[31] O
la_data_out[32] O
la_data_out[33] O
la_data_out[34] O
la_data_out[35] O
la_data_out[36] O
la_data_out[37] O
la_data_out[38] O
la_data_out[39] O
la_data_out[3] O
la_data_out[40] O
la_data_out[41] O
la_data_out[42] O
la_data_out[43] O
la_data_out[44] O
la_data_out[45] O
la_data_out[46] O
la_data_out[47] O
la_data_out[48] O
la_data_out[49] O
la_data_out[4] O
la_data_out[50] O
la_data_out[51] O
la_data_out[52] O
la_data_out[53] O
la_data_out[54] O
la_data_out[55] O
la_data_out[56] O
la_data_out[57] O
la_data_out[58] O
la_data_out[59] O
la_data_out[5] O
la_data_out[60] O
la_data_out[61] O
la_data_out[62] O
la_data_out[63] O
la_data_out[6] O
la_data_out[7] O
la_data_out[8] O
la_data_out[9] O
la_oenb[0] I
la_oenb[10] I
la_oenb[11] I
la_oenb[12] I
la_oenb[13] I
la_oenb[14] I
la_oenb[15] I
la_oenb[16] I
la_oenb[17] I
la_oenb[18] I
la_oenb[19] I
la_oenb[1] I
la_oenb[20] I
la_oenb[21] I
la_oenb[22] I
la_oenb[23] I
la_oenb[24] I
la_oenb[25] I
la_oenb[26] I
la_oenb[27] I
la_oenb[28] I
la_oenb[29] I
la_oenb[2] I
la_oenb[30] I
la_oenb[31] I
la_oenb[32] I
la_oenb[33] I
la_oenb[34] I
la_oenb[35] I
la_oenb[36] I
la_oenb[37] I
la_oenb[38] I
la_oenb[39] I
la_oenb[3] I
la_oenb[40] I
la_oenb[41] I
la_oenb[42] I
la_oenb[43] I
la_oenb[44] I
la_oenb[45] I
la_oenb[46] I
la_oenb[47] I
la_oenb[48] I
la_oenb[49] I
la_oenb[4] I
la_oenb[50] I
la_oenb[51] I
la_oenb[52] I
la_oenb[53] I
la_oenb[54] I
la_oenb[55] I
la_oenb[56] I
la_oenb[57] I
la_oenb[58] I
la_oenb[59] I
la_oenb[5] I
la_oenb[60] I
la_oenb[61] I
la_oenb[62] I
la_oenb[63] I
la_oenb[6] I
la_oenb[7] I
la_oenb[8] I
la_oenb[9] I
user_clock2 I
user_irq[0] O
user_irq[1] O
user_irq[2] O
wb_clk_i I
wb_rst_i I
wbs_ack_o O
wbs_adr_i[0] I
wbs_adr_i[10] I
wbs_adr_i[11] I
wbs_adr_i[12] I
wbs_adr_i[13] I
wbs_adr_i[14] I
wbs_adr_i[15] I
wbs_adr_i[16] I
wbs_adr_i[17] I
wbs_adr_i[18] I
wbs_adr_i[19] I
wbs_adr_i[1] I
wbs_adr_i[20] I
wbs_adr_i[21] I
wbs_adr_i[22] I
wbs_adr_i[23] I
wbs_adr_i[24] I
wbs_adr_i[25] I
wbs_adr_i[26] I
wbs_adr_i[27] I
wbs_adr_i[28] I
wbs_adr_i[29] I
wbs_adr_i[2] I
wbs_adr_i[30] I
wbs_adr_i[31] I
wbs_adr_i[3] I
wbs_adr_i[4] I
wbs_adr_i[5] I
wbs_adr_i[6] I
wbs_adr_i[7] I
wbs_adr_i[8] I
wbs_adr_i[9] I
wbs_cyc_i I
wbs_dat_i[0] I
wbs_dat_i[10] I
wbs_dat_i[11] I
wbs_dat_i[12] I
wbs_dat_i[13] I
wbs_dat_i[14] I
wbs_dat_i[15] I
wbs_dat_i[16] I
wbs_dat_i[17] I
wbs_dat_i[18] I
wbs_dat_i[19] I
wbs_dat_i[1] I
wbs_dat_i[20] I
wbs_dat_i[21] I
wbs_dat_i[22] I
wbs_dat_i[23] I
wbs_dat_i[24] I
wbs_dat_i[25] I
wbs_dat_i[26] I
wbs_dat_i[27] I
wbs_dat_i[28] I
wbs_dat_i[29] I
wbs_dat_i[2] I
wbs_dat_i[30] I
wbs_dat_i[31] I
wbs_dat_i[3] I
wbs_dat_i[4] I
wbs_dat_i[5] I
wbs_dat_i[6] I
wbs_dat_i[7] I
wbs_dat_i[8] I
wbs_dat_i[9] I
wbs_dat_o[0] O
wbs_dat_o[10] O
wbs_dat_o[11] O
wbs_dat_o[12] O
wbs_dat_o[13] O
wbs_dat_o[14] O
wbs_dat_o[15] O
wbs_dat_o[16] O
wbs_dat_o[17] O
wbs_dat_o[18] O
wbs_dat_o[19] O
wbs_dat_o[1] O
wbs_dat_o[20] O
wbs_dat_o[21] O
wbs_dat_o[22] O
wbs_dat_o[23] O
wbs_dat_o[24] O
wbs_dat_o[25] O
wbs_dat_o[26] O
wbs_dat_o[27] O
wbs_dat_o[28] O
wbs_dat_o[29] O
wbs_dat_o[2] O
wbs_dat_o[30] O
wbs_dat_o[31] O
wbs_dat_o[3] O
wbs_dat_o[4] O
wbs_dat_o[5] O
wbs_dat_o[6] O
wbs_dat_o[7] O
wbs_dat_o[8] O
wbs_dat_o[9] O
wbs_sel_i[0] I
wbs_sel_i[1] I
wbs_sel_i[2] I
wbs_sel_i[3] I
wbs_stb_i I
wbs_we_i I

*D_NET *1 0.307562
*CONN
*P io_in[0] I
*I *419:io_in[0] I *D tiny_user_project
*CAP
1 io_in[0] 0.00291927
2 *419:io_in[0] 0.00131202
3 *1:14 0.0228483
4 *1:13 0.0215363
5 *1:11 0.080781
6 *1:10 0.0837002
7 *419:io_in[0] *20:11 0.00370946
8 *1:14 *5:16 0
9 *1:14 *138:11 0.00998891
10 *1:14 *220:13 0.035066
11 *1:14 *233:13 0
12 *1:14 *287:19 0.0043945
13 *1:14 *333:19 0.0413059
*RES
1 io_in[0] *1:10 38.295 
2 *1:10 *1:11 844.83 
3 *1:11 *1:13 4.5 
4 *1:13 *1:14 347.49 
5 *1:14 *419:io_in[0] 32.31 
*END

*D_NET *2 0.278309
*CONN
*P io_in[10] I
*I *419:io_in[10] I *D tiny_user_project
*CAP
1 io_in[10] 0.0775342
2 *419:io_in[10] 0.00121797
3 *2:8 0.0172845
4 *2:7 0.0160665
5 *2:5 0.0775342
6 *2:8 *81:11 0.017087
7 *2:8 *192:11 0.0589821
8 *2:8 *317:23 0.0126025
*RES
1 io_in[10] *2:5 845.505 
2 *2:5 *2:7 4.5 
3 *2:7 *2:8 267.21 
4 *2:8 *419:io_in[10] 24.48 
*END

*D_NET *3 0.468421
*CONN
*P io_in[11] I
*I *419:io_in[11] I *D tiny_user_project
*CAP
1 io_in[11] 0.000280649
2 *419:io_in[11] 0.00135042
3 *3:16 0.0214368
4 *3:15 0.0200864
5 *3:13 0.0777313
6 *3:11 0.078012
7 *419:io_in[11] *419:io_in[14] 0
8 *419:io_in[11] *361:16 0.00503453
9 *3:13 *54:8 0
10 *3:16 *82:11 0.0563839
11 *3:16 *197:13 0.128214
12 *3:16 *285:19 0.078745
13 *3:16 *351:15 0.00114568
*RES
1 io_in[11] *3:11 2.655 
2 *3:11 *3:13 848.07 
3 *3:13 *3:15 4.5 
4 *3:15 *3:16 436.05 
5 *3:16 *419:io_in[11] 27.27 
*END

*D_NET *4 0.545127
*CONN
*P io_in[12] I
*I *419:io_in[12] I *D tiny_user_project
*CAP
1 io_in[12] 0.000215438
2 *419:io_in[12] 0.00193611
3 *4:16 0.0221788
4 *4:15 0.0202427
5 *4:13 0.077949
6 *4:11 0.0781644
7 *419:io_in[12] *419:wbs_dat_i[22] 0
8 *4:16 *90:13 0.278093
9 *4:16 *287:19 0.0663472
*RES
1 io_in[12] *4:11 2.115 
2 *4:11 *4:13 850.59 
3 *4:13 *4:15 4.5 
4 *4:15 *4:16 423.99 
5 *4:16 *419:io_in[12] 30.33 
*END

*D_NET *5 0.314694
*CONN
*P io_in[13] I
*I *419:io_in[13] I *D tiny_user_project
*CAP
1 io_in[13] 0.000145659
2 *419:io_in[13] 0.00206591
3 *5:16 0.0461958
4 *5:15 0.0441299
5 *5:13 0.0781389
6 *5:11 0.0782845
7 *5:16 *75:13 0.0184127
8 *5:16 *185:13 0.0214815
9 *5:16 *292:11 0.0258392
10 *1:14 *5:16 0
*RES
1 io_in[13] *5:11 1.575 
2 *5:11 *5:13 853.11 
3 *5:13 *5:15 4.5 
4 *5:15 *5:16 545.49 
5 *5:16 *419:io_in[13] 32.31 
*END

*D_NET *6 0.433195
*CONN
*P io_in[14] I
*I *419:io_in[14] I *D tiny_user_project
*CAP
1 io_in[14] 0.00397136
2 *419:io_in[14] 0.00262559
3 *6:12 0.0550201
4 *6:11 0.0523945
5 *6:9 0.0744113
6 *6:7 0.0783827
7 *6:12 *368:11 0.16639
8 *419:io_in[11] *419:io_in[14] 0
*RES
1 io_in[14] *6:7 43.425 
2 *6:7 *6:9 812.88 
3 *6:9 *6:11 4.5 
4 *6:11 *6:12 629.19 
5 *6:12 *419:io_in[14] 36.63 
*END

*D_NET *7 0.228028
*CONN
*P io_in[15] I
*I *419:io_in[15] I *D tiny_user_project
*CAP
1 io_in[15] 0.00433622
2 *419:io_in[15] 0.000703624
3 *7:17 0.00389892
4 *7:12 0.0669985
5 *7:11 0.0638032
6 *7:9 0.0363805
7 *7:7 0.0407167
8 *419:io_in[15] *124:22 0.00279763
9 *419:io_in[15] *378:18 0.00839292
*RES
1 io_in[15] *7:7 43.245 
2 *7:7 *7:9 363.24 
3 *7:9 *7:11 4.5 
4 *7:11 *7:12 695.43 
5 *7:12 *7:17 38.79 
6 *7:17 *419:io_in[15] 21.015 
*END

*D_NET *8 0.223961
*CONN
*P io_in[16] I
*I *419:io_in[16] I *D tiny_user_project
*CAP
1 io_in[16] 0.000164983
2 *419:io_in[16] 0.00229124
3 *8:19 0.0516717
4 *8:18 0.0493805
5 *8:16 0.0401961
6 *8:15 0.0401961
7 *8:13 0.0149957
8 *8:11 0.0151607
9 *8:19 *31:16 0
10 *8:19 *91:10 0
11 *8:19 *265:19 0.00699683
12 *8:19 *365:11 0.00290691
*RES
1 io_in[16] *8:11 1.935 
2 *8:11 *8:13 149.67 
3 *8:13 *8:15 4.5 
4 *8:15 *8:16 438.93 
5 *8:16 *8:18 4.5 
6 *8:18 *8:19 530.55 
7 *8:19 *419:io_in[16] 25.335 
*END

*D_NET *9 0.159036
*CONN
*P io_in[17] I
*I *419:io_in[17] I *D tiny_user_project
*CAP
1 io_in[17] 0.000291323
2 *419:io_in[17] 0.00159176
3 *9:16 0.0330205
4 *9:15 0.0314287
5 *9:13 0.0461014
6 *9:11 0.0463928
7 *419:io_in[17] *264:14 0
8 *9:16 *419:la_data_in[10] 0.000209823
*RES
1 io_in[17] *9:11 3.015 
2 *9:11 *9:13 458.73 
3 *9:13 *9:15 4.5 
4 *9:15 *9:16 337.68 
5 *9:16 *419:io_in[17] 15.255 
*END

*D_NET *10 0.152132
*CONN
*P io_in[18] I
*I *419:io_in[18] I *D tiny_user_project
*CAP
1 io_in[18] 0.000104982
2 *419:io_in[18] 0.00396509
3 *10:16 0.035546
4 *10:15 0.0315809
5 *10:13 0.0404149
6 *10:11 0.0405199
7 *10:16 *60:11 0
*RES
1 io_in[18] *10:11 1.395 
2 *10:11 *10:13 403.47 
3 *10:13 *10:15 4.5 
4 *10:15 *10:16 342.99 
5 *10:16 *419:io_in[18] 41.265 
*END

*D_NET *11 0.226173
*CONN
*P io_in[19] I
*I *419:io_in[19] I *D tiny_user_project
*CAP
1 io_in[19] 0.000205021
2 *419:io_in[19] 0.00140696
3 *11:24 0.00502791
4 *11:19 0.0290236
5 *11:18 0.0254026
6 *11:16 0.00854437
7 *11:15 0.00854437
8 *11:13 0.0461034
9 *11:11 0.0463084
10 *11:13 *252:13 0.0205609
11 *11:19 *123:11 0.0350455
12 *11:19 *178:13 0
13 *11:19 *347:19 0
*RES
1 io_in[19] *11:11 2.295 
2 *11:11 *11:13 470.97 
3 *11:13 *11:15 4.5 
4 *11:15 *11:16 90.81 
5 *11:16 *11:18 4.5 
6 *11:18 *11:19 274.05 
7 *11:19 *11:24 38.61 
8 *11:24 *419:io_in[19] 12.735 
*END

*D_NET *12 0.931951
*CONN
*P io_in[1] I
*I *419:io_in[1] I *D tiny_user_project
*CAP
1 io_in[1] 0.000271078
2 *419:io_in[1] 0.00107266
3 *12:11 0.0513742
4 *12:10 0.0503015
5 *12:8 0.028192
6 *12:7 0.0284631
7 *419:io_in[1] *419:la_oenb[18] 0.00693546
8 *419:io_in[1] *73:11 0.00147302
9 *419:io_in[1] *400:11 0.00337567
10 *12:8 *23:8 0.259312
11 *12:8 *40:14 0.00216861
12 *12:11 *419:la_data_in[63] 0.00379236
13 *12:11 *419:la_oenb[41] 0.00279764
14 *12:11 *45:10 0.00167847
15 *12:11 *72:13 0.00125581
16 *12:11 *102:8 0.0991527
17 *12:11 *124:22 0.00363381
18 *12:11 *133:22 0
19 *12:11 *152:16 0
20 *12:11 *164:16 0.377916
21 *12:11 *270:16 0.00594719
22 *12:11 *317:26 0.00283805
23 *12:11 *358:22 0
24 *12:11 *367:22 0
25 *12:11 *378:18 0
*RES
1 io_in[1] *12:7 6.885 
2 *12:7 *12:8 454.05 
3 *12:8 *12:10 4.5 
4 *12:10 *12:11 837.99 
5 *12:11 *419:io_in[1] 40.41 
*END

*D_NET *13 0.105936
*CONN
*P io_in[20] I
*I *419:io_in[20] I *D tiny_user_project
*CAP
1 io_in[20] 0.00433622
2 *419:io_in[20] 0.00451684
3 *13:12 0.0130655
4 *13:11 0.00854869
5 *13:9 0.035566
6 *13:7 0.0399023
7 *13:12 *75:16 0
*RES
1 io_in[20] *13:7 43.245 
2 *13:7 *13:9 355.14 
3 *13:9 *13:11 4.5 
4 *13:11 *13:12 91.89 
5 *13:12 *419:io_in[20] 46.665 
*END

*D_NET *14 0.454177
*CONN
*P io_in[21] I
*I *419:io_in[21] I *D tiny_user_project
*CAP
1 io_in[21] 0.000688716
2 *419:io_in[21] 0.000178262
3 *14:16 0.00236083
4 *14:11 0.0646758
5 *14:10 0.0624932
6 *14:8 0.00375901
7 *14:7 0.00444772
8 *14:8 *91:13 0.0514144
9 *14:11 *58:7 0.000378484
10 *14:11 *337:19 0.229238
11 *14:11 *399:11 0.00662858
12 *14:16 *71:16 0.0279138
13 *14:16 *299:16 0
*RES
1 io_in[21] *14:7 10.665 
2 *14:7 *14:8 74.43 
3 *14:8 *14:10 4.5 
4 *14:10 *14:11 782.01 
5 *14:11 *14:16 49.41 
6 *14:16 *419:io_in[21] 1.665 
*END

*D_NET *15 0.146131
*CONN
*P io_in[22] I
*I *419:io_in[22] I *D tiny_user_project
*CAP
1 io_in[22] 0.000290594
2 *419:io_in[22] 6.66947e-05
3 *15:19 0.0306329
4 *15:18 0.0305662
5 *15:16 0.0170382
6 *15:15 0.0170382
7 *15:13 0.0123292
8 *15:11 0.0126198
9 *419:io_in[22] *419:wbs_dat_i[21] 0.000683866
10 *419:io_in[22] *178:16 0.000683866
11 *15:19 *16:19 0.0177376
12 *15:19 *126:11 0.00644445
*RES
1 io_in[22] *15:11 3.015 
2 *15:11 *15:13 122.67 
3 *15:13 *15:15 4.5 
4 *15:15 *15:16 186.57 
5 *15:16 *15:18 4.5 
6 *15:18 *15:19 317.61 
7 *15:19 *419:io_in[22] 11.97 
*END

*D_NET *16 0.172854
*CONN
*P io_in[23] I
*I *419:io_in[23] I *D tiny_user_project
*CAP
1 io_in[23] 0.000104982
2 *419:io_in[23] 0.000271525
3 *16:19 0.00439723
4 *16:18 0.0041257
5 *16:16 0.0270053
6 *16:15 0.0270053
7 *16:13 0.0414155
8 *16:11 0.0415205
9 *16:16 *229:8 0
10 *16:16 *297:16 0
11 *16:19 *126:11 0.00908361
12 *16:19 *218:13 0.000186429
13 *15:19 *16:19 0.0177376
*RES
1 io_in[23] *16:11 1.395 
2 *16:11 *16:13 414.27 
3 *16:13 *16:15 4.5 
4 *16:15 *16:16 292.05 
5 *16:16 *16:18 4.5 
6 *16:18 *16:19 65.97 
7 *16:19 *419:io_in[23] 6.885 
*END

*D_NET *17 0.343448
*CONN
*P io_in[24] I
*I *419:io_in[24] I *D tiny_user_project
*CAP
1 io_in[24] 0.000611329
2 *419:io_in[24] 0.000545933
3 *17:17 0.0167641
4 *17:16 0.0162182
5 *17:14 0.032534
6 *17:13 0.032534
7 *17:11 0.00641302
8 *17:10 0.00641302
9 *17:8 0.0423395
10 *17:7 0.0429508
11 *17:11 *102:8 0
12 *17:14 *212:13 0.00397024
13 *17:14 *393:13 0.00322223
14 *17:17 *419:la_data_in[51] 0.00362653
15 *17:17 *419:la_data_in[58] 0.00167849
16 *17:17 *419:la_oenb[27] 0.0012149
17 *17:17 *419:wbs_adr_i[16] 0.00777122
18 *17:17 *419:wbs_adr_i[2] 0.000942907
19 *17:17 *42:8 0.00198943
20 *17:17 *79:8 0.0381096
21 *17:17 *83:8 0.0280382
22 *17:17 *96:8 0
23 *17:17 *113:8 0.0202047
24 *17:17 *183:10 0.00130534
25 *17:17 *194:10 0.0039167
26 *17:17 *206:10 0.00379225
27 *17:17 *220:16 0
28 *17:17 *269:16 0.0016288
29 *17:17 *329:24 0.00341934
30 *17:17 *332:16 0
31 *17:17 *343:22 0.00139623
32 *17:17 *356:22 0.00702519
33 *17:17 *363:12 0.00255984
34 *17:17 *385:14 0.00246605
35 *17:17 *398:10 0.00466265
36 *17:17 *406:10 0.00318302
*RES
1 io_in[24] *17:7 10.665 
2 *17:7 *17:8 422.73 
3 *17:8 *17:10 4.5 
4 *17:10 *17:11 67.59 
5 *17:11 *17:13 4.5 
6 *17:13 *17:14 355.41 
7 *17:14 *17:16 4.5 
8 *17:16 *17:17 301.77 
9 *17:17 *419:io_in[24] 9.225 
*END

*D_NET *18 0.387795
*CONN
*P io_in[25] I
*I *419:io_in[25] I *D tiny_user_project
*CAP
1 io_in[25] 0.0040901
2 *419:io_in[25] 0.000273011
3 *18:19 0.00433678
4 *18:18 0.00406377
5 *18:16 0.0627572
6 *18:15 0.0668473
7 *419:io_in[25] *419:la_oenb[16] 0
8 *18:16 *28:8 0.121585
9 *18:19 *85:10 0.00120195
10 *18:19 *101:8 0.0875969
11 *18:19 *396:16 0.0277896
12 *18:19 *412:14 0.00725313
*RES
1 io_in[25] *18:15 48.105 
2 *18:15 *18:16 705.51 
3 *18:16 *18:18 4.5 
4 *18:18 *18:19 126.81 
5 *18:19 *419:io_in[25] 6.885 
*END

*D_NET *19 0.108113
*CONN
*P io_in[26] I
*I *419:io_in[26] I *D tiny_user_project
*CAP
1 io_in[26] 0.00010158
2 *419:io_in[26] 0.00206157
3 *19:16 0.0363492
4 *19:15 0.0342877
5 *19:13 0.00960493
6 *19:11 0.00970651
7 *419:io_in[26] *417:16 0.00565662
8 *19:16 *43:13 0.0103449
*RES
1 io_in[26] *19:11 1.215 
2 *19:11 *19:13 103.41 
3 *19:13 *19:15 4.5 
4 *19:15 *19:16 388.53 
5 *19:16 *419:io_in[26] 40.77 
*END

*D_NET *20 0.140697
*CONN
*P io_in[27] I
*I *419:io_in[27] I *D tiny_user_project
*CAP
1 io_in[27] 0.00113819
2 *419:io_in[27] 8.33135e-05
3 *20:11 0.011059
4 *20:10 0.0109757
5 *20:8 0.0334956
6 *20:7 0.0346338
7 *20:8 *101:11 0.0456022
8 *419:io_in[0] *20:11 0.00370946
*RES
1 io_in[27] *20:7 16.065 
2 *20:7 *20:8 364.05 
3 *20:8 *20:10 4.5 
4 *20:10 *20:11 116.37 
5 *20:11 *419:io_in[27] 9.9 
*END

*D_NET *21 0.082467
*CONN
*P io_in[28] I
*I *419:io_in[28] I *D tiny_user_project
*CAP
1 io_in[28] 0.000167681
2 *419:io_in[28] 0.000173928
3 *21:19 0.00472136
4 *21:16 0.0273651
5 *21:15 0.0228177
6 *21:13 0.00875903
7 *21:11 0.00892671
8 *21:16 *37:14 0.00953549
9 *21:16 *122:19 0
*RES
1 io_in[28] *21:11 1.755 
2 *21:11 *21:13 84.51 
3 *21:13 *21:15 4.5 
4 *21:15 *21:16 267.39 
5 *21:16 *21:19 47.97 
6 *21:19 *419:io_in[28] 10.98 
*END

*D_NET *22 0.0753545
*CONN
*P io_in[29] I
*I *419:io_in[29] I *D tiny_user_project
*CAP
1 io_in[29] 0.00191816
2 *419:io_in[29] 0.000219235
3 *22:11 0.0111407
4 *22:10 0.0109215
5 *22:8 0.0246184
6 *22:7 0.0265365
*RES
1 io_in[29] *22:7 24.165 
2 *22:7 *22:8 245.79 
3 *22:8 *22:10 4.5 
4 *22:10 *22:11 108.27 
5 *22:11 *419:io_in[29] 11.52 
*END

*D_NET *23 0.702923
*CONN
*P io_in[2] I
*I *419:io_in[2] I *D tiny_user_project
*CAP
1 io_in[2] 0.000255153
2 *419:io_in[2] 0.000584409
3 *23:11 0.0386911
4 *23:10 0.0381067
5 *23:8 0.0165729
6 *23:7 0.0168281
7 *419:io_in[2] *52:8 0
8 *419:io_in[2] *112:16 0.00137806
9 *419:io_in[2] *218:14 0
10 *23:8 *40:14 0.070889
11 *23:11 *218:14 0.260305
12 *12:8 *23:8 0.259312
*RES
1 io_in[2] *23:7 6.705 
2 *23:7 *23:8 380.25 
3 *23:8 *23:10 4.5 
4 *23:10 *23:11 576.81 
5 *23:11 *419:io_in[2] 16.695 
*END

*D_NET *24 0.397483
*CONN
*P io_in[30] I
*I *419:io_in[30] I *D tiny_user_project
*CAP
1 io_in[30] 0.000237175
2 *419:io_in[30] 0.000897053
3 *24:19 0.00481007
4 *24:18 0.00391302
5 *24:16 0.0305099
6 *24:15 0.0305099
7 *24:13 0.00820094
8 *24:11 0.00843812
9 *419:io_in[30] wbs_dat_o[29] 4.09172e-05
10 *419:io_in[30] *104:13 0.0059023
11 *24:16 *37:14 0
12 *24:16 *129:19 0.0142942
13 *24:16 *134:11 0
14 *24:16 *143:11 0.00451112
15 *24:16 *246:15 0
16 *24:19 *95:10 0.114827
17 *24:19 *104:14 0.16332
18 *24:19 *212:16 0.0070709
*RES
1 io_in[30] *24:11 2.295 
2 *24:11 *24:13 87.21 
3 *24:13 *24:15 4.5 
4 *24:15 *24:16 373.23 
5 *24:16 *24:18 4.5 
6 *24:18 *24:19 236.43 
7 *24:19 *419:io_in[30] 17.505 
*END

*D_NET *25 0.0618664
*CONN
*P io_in[31] I
*I *419:io_in[31] I *D tiny_user_project
*CAP
1 io_in[31] 0.00010158
2 *419:io_in[31] 0.000128621
3 *25:19 0.00519977
4 *25:18 0.00507115
5 *25:16 0.0114502
6 *25:15 0.0114502
7 *25:13 0.00786033
8 *25:11 0.00796191
9 *25:16 *122:19 0
10 *25:16 *145:19 0.0126426
11 *25:16 *342:11 0
*RES
1 io_in[31] *25:11 1.215 
2 *25:11 *25:13 81.81 
3 *25:13 *25:15 4.5 
4 *25:15 *25:16 167.49 
5 *25:16 *25:18 4.5 
6 *25:18 *25:19 46.17 
7 *25:19 *419:io_in[31] 10.44 
*END

*D_NET *26 0.304602
*CONN
*P io_in[32] I
*I *419:io_in[32] I *D tiny_user_project
*CAP
1 io_in[32] 0.000280649
2 *419:io_in[32] 0.0011608
3 *26:19 0.00526372
4 *26:18 0.00410292
5 *26:16 0.0172483
6 *26:15 0.0172483
7 *26:13 0.012035
8 *26:11 0.0123157
9 *26:13 *70:10 0.00028598
10 *26:13 *82:10 0
11 *26:13 *351:21 0.00528443
12 *26:16 *284:15 0
13 *26:16 *299:19 0.00903144
14 *26:16 *321:22 0.0034997
15 *26:16 *335:11 0.00263302
16 *26:19 *62:11 0.17451
17 *26:19 *241:14 0.0277027
18 *26:19 *321:16 0.0119987
*RES
1 io_in[32] *26:11 2.655 
2 *26:11 *26:13 125.01 
3 *26:13 *26:15 4.5 
4 *26:15 *26:16 230.13 
5 *26:16 *26:18 4.5 
6 *26:18 *26:19 252.63 
7 *26:19 *419:io_in[32] 18.27 
*END

*D_NET *27 0.0652161
*CONN
*P io_in[33] I
*I *419:io_in[33] I *D tiny_user_project
*CAP
1 io_in[33] 0.000167681
2 *419:io_in[33] 0.00140989
3 *27:16 0.00980645
4 *27:15 0.00839656
5 *27:13 0.0108099
6 *27:11 0.0109775
7 *27:13 *419:wbs_dat_i[31] 0.0126205
8 *27:16 *166:19 0.00515557
9 *27:16 *192:11 0.00512334
10 *27:16 *197:13 0
11 *27:16 *251:15 0.000748784
*RES
1 io_in[33] *27:11 1.755 
2 *27:11 *27:13 116.91 
3 *27:13 *27:15 4.5 
4 *27:15 *27:16 124.11 
5 *27:16 *419:io_in[33] 25.2 
*END

*D_NET *28 0.168906
*CONN
*P io_in[34] I
*I *419:io_in[34] I *D tiny_user_project
*CAP
1 io_in[34] 0.00399967
2 *419:io_in[34] 0.000162121
3 *28:11 0.00971657
4 *28:10 0.00955445
5 *28:8 0.00994405
6 *28:7 0.0139437
7 *18:16 *28:8 0.121585
*RES
1 io_in[34] *28:7 45.945 
2 *28:7 *28:8 178.29 
3 *28:8 *28:10 4.5 
4 *28:10 *28:11 86.49 
5 *28:11 *419:io_in[34] 10.44 
*END

*D_NET *29 0.256848
*CONN
*P io_in[35] I
*I *419:io_in[35] I *D tiny_user_project
*CAP
1 io_in[35] 0.000215438
2 *419:io_in[35] 0.000777211
3 *29:19 0.0181386
4 *29:18 0.0173614
5 *29:16 0.032507
6 *29:15 0.032507
7 *29:13 0.00627058
8 *29:11 0.00648602
9 *419:io_in[35] *124:21 0.000107408
10 *29:13 *327:16 0.0177184
11 *29:16 *34:14 0.0028931
12 *29:16 *151:19 0
13 *29:16 *354:11 0
14 *29:16 *393:13 0
15 *29:19 *37:11 0
16 *29:19 *64:8 0.0322839
17 *29:19 *108:8 0.0895818
*RES
1 io_in[35] *29:11 2.115 
2 *29:11 *29:13 76.41 
3 *29:13 *29:15 4.5 
4 *29:15 *29:16 335.97 
5 *29:16 *29:18 4.5 
6 *29:18 *29:19 269.91 
7 *29:19 *419:io_in[35] 11.565 
*END

*D_NET *30 0.508436
*CONN
*P io_in[36] I
*I *419:io_in[36] I *D tiny_user_project
*CAP
1 io_in[36] 0.00010158
2 *419:io_in[36] 0.00134363
3 *30:16 0.0103367
4 *30:15 0.00899306
5 *30:13 0.0340946
6 *30:11 0.0341962
7 *419:io_in[36] *419:wbs_dat_i[8] 0
8 *30:13 *88:14 0
9 *30:13 *216:10 0
10 *30:13 *373:16 0.00823437
11 *30:16 *69:8 0.148959
12 *30:16 *186:10 0.00116614
13 *30:16 *254:15 0.247651
14 *30:16 *370:11 0.0133595
*RES
1 io_in[36] *30:11 1.215 
2 *30:11 *30:13 391.23 
3 *30:13 *30:15 4.5 
4 *30:15 *30:16 363.15 
5 *30:16 *419:io_in[36] 17.505 
*END

*D_NET *31 0.408501
*CONN
*P io_in[37] I
*I *419:io_in[37] I *D tiny_user_project
*CAP
1 io_in[37] 0.000310538
2 *419:io_in[37] 0.00231759
3 *31:16 0.0240767
4 *31:15 0.0217591
5 *31:13 0.0384713
6 *31:11 0.0387819
7 *31:13 *151:16 0
8 *31:13 *156:16 0
9 *31:16 *91:10 0.109801