*SPEF "ieee 1481-1999"
*DESIGN "user_project_wrapper"
*DATE "11:11:11 Fri 11 11, 1111"
*VENDOR "OpenRCX"
*PROGRAM "Parallel Extraction"
*VERSION "1.0"
*DESIGN_FLOW "NAME_SCOPE LOCAL" "PIN_CAP NONE"
*DIVIDER /
*DELIMITER :
*BUS_DELIMITER []
*T_UNIT 1 NS
*C_UNIT 1 PF
*R_UNIT 1 OHM
*L_UNIT 1 HENRY

*NAME_MAP
*1 io_in[0]
*2 io_in[10]
*3 io_in[11]
*4 io_in[12]
*5 io_in[13]
*6 io_in[14]
*7 io_in[15]
*8 io_in[16]
*9 io_in[17]
*10 io_in[18]
*11 io_in[19]
*12 io_in[1]
*13 io_in[20]
*14 io_in[21]
*15 io_in[22]
*16 io_in[23]
*17 io_in[24]
*18 io_in[25]
*19 io_in[26]
*20 io_in[27]
*21 io_in[28]
*22 io_in[29]
*23 io_in[2]
*24 io_in[30]
*25 io_in[31]
*26 io_in[32]
*27 io_in[33]
*28 io_in[34]
*29 io_in[35]
*30 io_in[36]
*31 io_in[37]
*32 io_in[3]
*33 io_in[4]
*34 io_in[5]
*35 io_in[6]
*36 io_in[7]
*37 io_in[8]
*38 io_in[9]
*39 io_oeb[0]
*40 io_oeb[10]
*41 io_oeb[11]
*42 io_oeb[12]
*43 io_oeb[13]
*44 io_oeb[14]
*45 io_oeb[15]
*46 io_oeb[16]
*47 io_oeb[17]
*48 io_oeb[18]
*49 io_oeb[19]
*50 io_oeb[1]
*51 io_oeb[20]
*52 io_oeb[21]
*53 io_oeb[22]
*54 io_oeb[23]
*55 io_oeb[24]
*56 io_oeb[25]
*57 io_oeb[26]
*58 io_oeb[27]
*59 io_oeb[28]
*60 io_oeb[29]
*61 io_oeb[2]
*62 io_oeb[30]
*63 io_oeb[31]
*64 io_oeb[32]
*65 io_oeb[33]
*66 io_oeb[34]
*67 io_oeb[35]
*68 io_oeb[36]
*69 io_oeb[37]
*70 io_oeb[3]
*71 io_oeb[4]
*72 io_oeb[5]
*73 io_oeb[6]
*74 io_oeb[7]
*75 io_oeb[8]
*76 io_oeb[9]
*77 io_out[0]
*78 io_out[10]
*79 io_out[11]
*80 io_out[12]
*81 io_out[13]
*82 io_out[14]
*83 io_out[15]
*84 io_out[16]
*85 io_out[17]
*86 io_out[18]
*87 io_out[19]
*88 io_out[1]
*89 io_out[20]
*90 io_out[21]
*91 io_out[22]
*92 io_out[23]
*93 io_out[24]
*94 io_out[25]
*95 io_out[26]
*96 io_out[27]
*97 io_out[28]
*98 io_out[29]
*99 io_out[2]
*100 io_out[30]
*101 io_out[31]
*102 io_out[32]
*103 io_out[33]
*104 io_out[34]
*105 io_out[35]
*106 io_out[36]
*107 io_out[37]
*108 io_out[3]
*109 io_out[4]
*110 io_out[5]
*111 io_out[6]
*112 io_out[7]
*113 io_out[8]
*114 io_out[9]
*115 la_data_in[0]
*116 la_data_in[10]
*117 la_data_in[11]
*118 la_data_in[12]
*119 la_data_in[13]
*120 la_data_in[14]
*121 la_data_in[15]
*122 la_data_in[16]
*123 la_data_in[17]
*124 la_data_in[18]
*125 la_data_in[19]
*126 la_data_in[1]
*127 la_data_in[20]
*128 la_data_in[21]
*129 la_data_in[22]
*130 la_data_in[23]
*131 la_data_in[24]
*132 la_data_in[25]
*133 la_data_in[26]
*134 la_data_in[27]
*135 la_data_in[28]
*136 la_data_in[29]
*137 la_data_in[2]
*138 la_data_in[30]
*139 la_data_in[31]
*140 la_data_in[32]
*141 la_data_in[33]
*142 la_data_in[34]
*143 la_data_in[35]
*144 la_data_in[36]
*145 la_data_in[37]
*146 la_data_in[38]
*147 la_data_in[39]
*148 la_data_in[3]
*149 la_data_in[40]
*150 la_data_in[41]
*151 la_data_in[42]
*152 la_data_in[43]
*153 la_data_in[44]
*154 la_data_in[45]
*155 la_data_in[46]
*156 la_data_in[47]
*157 la_data_in[48]
*158 la_data_in[49]
*159 la_data_in[4]
*160 la_data_in[50]
*161 la_data_in[51]
*162 la_data_in[52]
*163 la_data_in[53]
*164 la_data_in[54]
*165 la_data_in[55]
*166 la_data_in[56]
*167 la_data_in[57]
*168 la_data_in[58]
*169 la_data_in[59]
*170 la_data_in[5]
*171 la_data_in[60]
*172 la_data_in[61]
*173 la_data_in[62]
*174 la_data_in[63]
*175 la_data_in[6]
*176 la_data_in[7]
*177 la_data_in[8]
*178 la_data_in[9]
*179 la_data_out[0]
*180 la_data_out[10]
*181 la_data_out[11]
*182 la_data_out[12]
*183 la_data_out[13]
*184 la_data_out[14]
*185 la_data_out[15]
*186 la_data_out[16]
*187 la_data_out[17]
*188 la_data_out[18]
*189 la_data_out[19]
*190 la_data_out[1]
*191 la_data_out[20]
*192 la_data_out[21]
*193 la_data_out[22]
*194 la_data_out[23]
*195 la_data_out[24]
*196 la_data_out[25]
*197 la_data_out[26]
*198 la_data_out[27]
*199 la_data_out[28]
*200 la_data_out[29]
*201 la_data_out[2]
*202 la_data_out[30]
*203 la_data_out[31]
*204 la_data_out[32]
*205 la_data_out[33]
*206 la_data_out[34]
*207 la_data_out[35]
*208 la_data_out[36]
*209 la_data_out[37]
*210 la_data_out[38]
*211 la_data_out[39]
*212 la_data_out[3]
*213 la_data_out[40]
*214 la_data_out[41]
*215 la_data_out[42]
*216 la_data_out[43]
*217 la_data_out[44]
*218 la_data_out[45]
*219 la_data_out[46]
*220 la_data_out[47]
*221 la_data_out[48]
*222 la_data_out[49]
*223 la_data_out[4]
*224 la_data_out[50]
*225 la_data_out[51]
*226 la_data_out[52]
*227 la_data_out[53]
*228 la_data_out[54]
*229 la_data_out[55]
*230 la_data_out[56]
*231 la_data_out[57]
*232 la_data_out[58]
*233 la_data_out[59]
*234 la_data_out[5]
*235 la_data_out[60]
*236 la_data_out[61]
*237 la_data_out[62]
*238 la_data_out[63]
*239 la_data_out[6]
*240 la_data_out[7]
*241 la_data_out[8]
*242 la_data_out[9]
*243 la_oenb[0]
*244 la_oenb[10]
*245 la_oenb[11]
*246 la_oenb[12]
*247 la_oenb[13]
*248 la_oenb[14]
*249 la_oenb[15]
*250 la_oenb[16]
*251 la_oenb[17]
*252 la_oenb[18]
*253 la_oenb[19]
*254 la_oenb[1]
*255 la_oenb[20]
*256 la_oenb[21]
*257 la_oenb[22]
*258 la_oenb[23]
*259 la_oenb[24]
*260 la_oenb[25]
*261 la_oenb[26]
*262 la_oenb[27]
*263 la_oenb[28]
*264 la_oenb[29]
*265 la_oenb[2]
*266 la_oenb[30]
*267 la_oenb[31]
*268 la_oenb[32]
*269 la_oenb[33]
*270 la_oenb[34]
*271 la_oenb[35]
*272 la_oenb[36]
*273 la_oenb[37]
*274 la_oenb[38]
*275 la_oenb[39]
*276 la_oenb[3]
*277 la_oenb[40]
*278 la_oenb[41]
*279 la_oenb[42]
*280 la_oenb[43]
*281 la_oenb[44]
*282 la_oenb[45]
*283 la_oenb[46]
*284 la_oenb[47]
*285 la_oenb[48]
*286 la_oenb[49]
*287 la_oenb[4]
*288 la_oenb[50]
*289 la_oenb[51]
*290 la_oenb[52]
*291 la_oenb[53]
*292 la_oenb[54]
*293 la_oenb[55]
*294 la_oenb[56]
*295 la_oenb[57]
*296 la_oenb[58]
*297 la_oenb[59]
*298 la_oenb[5]
*299 la_oenb[60]
*300 la_oenb[61]
*301 la_oenb[62]
*302 la_oenb[63]
*303 la_oenb[6]
*304 la_oenb[7]
*305 la_oenb[8]
*306 la_oenb[9]
*307 user_clock2
*308 user_irq[0]
*309 user_irq[1]
*310 user_irq[2]
*313 wb_clk_i
*314 wb_rst_i
*315 wbs_ack_o
*316 wbs_adr_i[0]
*317 wbs_adr_i[10]
*318 wbs_adr_i[11]
*319 wbs_adr_i[12]
*320 wbs_adr_i[13]
*321 wbs_adr_i[14]
*322 wbs_adr_i[15]
*323 wbs_adr_i[16]
*324 wbs_adr_i[17]
*325 wbs_adr_i[18]
*326 wbs_adr_i[19]
*327 wbs_adr_i[1]
*328 wbs_adr_i[20]
*329 wbs_adr_i[21]
*330 wbs_adr_i[22]
*331 wbs_adr_i[23]
*332 wbs_adr_i[24]
*333 wbs_adr_i[25]
*334 wbs_adr_i[26]
*335 wbs_adr_i[27]
*336 wbs_adr_i[28]
*337 wbs_adr_i[29]
*338 wbs_adr_i[2]
*339 wbs_adr_i[30]
*340 wbs_adr_i[31]
*341 wbs_adr_i[3]
*342 wbs_adr_i[4]
*343 wbs_adr_i[5]
*344 wbs_adr_i[6]
*345 wbs_adr_i[7]
*346 wbs_adr_i[8]
*347 wbs_adr_i[9]
*348 wbs_cyc_i
*349 wbs_dat_i[0]
*350 wbs_dat_i[10]
*351 wbs_dat_i[11]
*352 wbs_dat_i[12]
*353 wbs_dat_i[13]
*354 wbs_dat_i[14]
*355 wbs_dat_i[15]
*356 wbs_dat_i[16]
*357 wbs_dat_i[17]
*358 wbs_dat_i[18]
*359 wbs_dat_i[19]
*360 wbs_dat_i[1]
*361 wbs_dat_i[20]
*362 wbs_dat_i[21]
*363 wbs_dat_i[22]
*364 wbs_dat_i[23]
*365 wbs_dat_i[24]
*366 wbs_dat_i[25]
*367 wbs_dat_i[26]
*368 wbs_dat_i[27]
*369 wbs_dat_i[28]
*370 wbs_dat_i[29]
*371 wbs_dat_i[2]
*372 wbs_dat_i[30]
*373 wbs_dat_i[31]
*374 wbs_dat_i[3]
*375 wbs_dat_i[4]
*376 wbs_dat_i[5]
*377 wbs_dat_i[6]
*378 wbs_dat_i[7]
*379 wbs_dat_i[8]
*380 wbs_dat_i[9]
*381 wbs_dat_o[0]
*382 wbs_dat_o[10]
*383 wbs_dat_o[11]
*384 wbs_dat_o[12]
*385 wbs_dat_o[13]
*386 wbs_dat_o[14]
*387 wbs_dat_o[15]
*388 wbs_dat_o[16]
*389 wbs_dat_o[17]
*390 wbs_dat_o[18]
*391 wbs_dat_o[19]
*392 wbs_dat_o[1]
*393 wbs_dat_o[20]
*394 wbs_dat_o[21]
*395 wbs_dat_o[22]
*396 wbs_dat_o[23]
*397 wbs_dat_o[24]
*398 wbs_dat_o[25]
*399 wbs_dat_o[26]
*400 wbs_dat_o[27]
*401 wbs_dat_o[28]
*402 wbs_dat_o[29]
*403 wbs_dat_o[2]
*404 wbs_dat_o[30]
*405 wbs_dat_o[31]
*406 wbs_dat_o[3]
*407 wbs_dat_o[4]
*408 wbs_dat_o[5]
*409 wbs_dat_o[6]
*410 wbs_dat_o[7]
*411 wbs_dat_o[8]
*412 wbs_dat_o[9]
*413 wbs_sel_i[0]
*414 wbs_sel_i[1]
*415 wbs_sel_i[2]
*416 wbs_sel_i[3]
*417 wbs_stb_i
*418 wbs_we_i
*419 _00_
*420 _01_
*421 _02_
*422 _03_
*423 _04_
*424 _05_
*425 _06_
*426 _07_
*427 _08_
*428 _09_
*429 _10_
*430 _11_
*431 _12_
*432 _13_
*433 _14_
*434 _15_
*435 _16_
*436 _17_
*437 u_serv_0
*438 u_serv_1
*439 u_serv_2

*PORTS
io_in[0] I
io_in[10] I
io_in[11] I
io_in[12] I
io_in[13] I
io_in[14] I
io_in[15] I
io_in[16] I
io_in[17] I
io_in[18] I
io_in[19] I
io_in[1] I
io_in[20] I
io_in[21] I
io_in[22] I
io_in[23] I
io_in[24] I
io_in[25] I
io_in[26] I
io_in[27] I
io_in[28] I
io_in[29] I
io_in[2] I
io_in[30] I
io_in[31] I
io_in[32] I
io_in[33] I
io_in[34] I
io_in[35] I
io_in[36] I
io_in[37] I
io_in[3] I
io_in[4] I
io_in[5] I
io_in[6] I
io_in[7] I
io_in[8] I
io_in[9] I
io_oeb[0] O
io_oeb[10] O
io_oeb[11] O
io_oeb[12] O
io_oeb[13] O
io_oeb[14] O
io_oeb[15] O
io_oeb[16] O
io_oeb[17] O
io_oeb[18] O
io_oeb[19] O
io_oeb[1] O
io_oeb[20] O
io_oeb[21] O
io_oeb[22] O
io_oeb[23] O
io_oeb[24] O
io_oeb[25] O
io_oeb[26] O
io_oeb[27] O
io_oeb[28] O
io_oeb[29] O
io_oeb[2] O
io_oeb[30] O
io_oeb[31] O
io_oeb[32] O
io_oeb[33] O
io_oeb[34] O
io_oeb[35] O
io_oeb[36] O
io_oeb[37] O
io_oeb[3] O
io_oeb[4] O
io_oeb[5] O
io_oeb[6] O
io_oeb[7] O
io_oeb[8] O
io_oeb[9] O
io_out[0] O
io_out[10] O
io_out[11] O
io_out[12] O
io_out[13] O
io_out[14] O
io_out[15] O
io_out[16] O
io_out[17] O
io_out[18] O
io_out[19] O
io_out[1] O
io_out[20] O
io_out[21] O
io_out[22] O
io_out[23] O
io_out[24] O
io_out[25] O
io_out[26] O
io_out[27] O
io_out[28] O
io_out[29] O
io_out[2] O
io_out[30] O
io_out[31] O
io_out[32] O
io_out[33] O
io_out[34] O
io_out[35] O
io_out[36] O
io_out[37] O
io_out[3] O
io_out[4] O
io_out[5] O
io_out[6] O
io_out[7] O
io_out[8] O
io_out[9] O
la_data_in[0] I
la_data_in[10] I
la_data_in[11] I
la_data_in[12] I
la_data_in[13] I
la_data_in[14] I
la_data_in[15] I
la_data_in[16] I
la_data_in[17] I
la_data_in[18] I
la_data_in[19] I
la_data_in[1] I
la_data_in[20] I
la_data_in[21] I
la_data_in[22] I
la_data_in[23] I
la_data_in[24] I
la_data_in[25] I
la_data_in[26] I
la_data_in[27] I
la_data_in[28] I
la_data_in[29] I
la_data_in[2] I
la_data_in[30] I
la_data_in[31] I
la_data_in[32] I
la_data_in[33] I
la_data_in[34] I
la_data_in[35] I
la_data_in[36] I
la_data_in[37] I
la_data_in[38] I
la_data_in[39] I
la_data_in[3] I
la_data_in[40] I
la_data_in[41] I
la_data_in[42] I
la_data_in[43] I
la_data_in[44] I
la_data_in[45] I
la_data_in[46] I
la_data_in[47] I
la_data_in[48] I
la_data_in[49] I
la_data_in[4] I
la_data_in[50] I
la_data_in[51] I
la_data_in[52] I
la_data_in[53] I
la_data_in[54] I
la_data_in[55] I
la_data_in[56] I
la_data_in[57] I
la_data_in[58] I
la_data_in[59] I
la_data_in[5] I
la_data_in[60] I
la_data_in[61] I
la_data_in[62] I
la_data_in[63] I
la_data_in[6] I
la_data_in[7] I
la_data_in[8] I
la_data_in[9] I
la_data_out[0] O
la_data_out[10] O
la_data_out[11] O
la_data_out[12] O
la_data_out[13] O
la_data_out[14] O
la_data_out[15] O
la_data_out[16] O
la_data_out[17] O
la_data_out[18] O
la_data_out[19] O
la_data_out[1] O
la_data_out[20] O
la_data_out[21] O
la_data_out[22] O
la_data_out[23] O
la_data_out[24] O
la_data_out[25] O
la_data_out[26] O
la_data_out[27] O
la_data_out[28] O
la_data_out[29] O
la_data_out[2] O
la_data_out[30] O
la_data_out[31] O
la_data_out[32] O
la_data_out[33] O
la_data_out[34] O
la_data_out[35] O
la_data_out[36] O
la_data_out[37] O
la_data_out[38] O
la_data_out[39] O
la_data_out[3] O
la_data_out[40] O
la_data_out[41] O
la_data_out[42] O
la_data_out[43] O
la_data_out[44] O
la_data_out[45] O
la_data_out[46] O
la_data_out[47] O
la_data_out[48] O
la_data_out[49] O
la_data_out[4] O
la_data_out[50] O
la_data_out[51] O
la_data_out[52] O
la_data_out[53] O
la_data_out[54] O
la_data_out[55] O
la_data_out[56] O
la_data_out[57] O
la_data_out[58] O
la_data_out[59] O
la_data_out[5] O
la_data_out[60] O
la_data_out[61] O
la_data_out[62] O
la_data_out[63] O
la_data_out[6] O
la_data_out[7] O
la_data_out[8] O
la_data_out[9] O
la_oenb[0] I
la_oenb[10] I
la_oenb[11] I
la_oenb[12] I
la_oenb[13] I
la_oenb[14] I
la_oenb[15] I
la_oenb[16] I
la_oenb[17] I
la_oenb[18] I
la_oenb[19] I
la_oenb[1] I
la_oenb[20] I
la_oenb[21] I
la_oenb[22] I
la_oenb[23] I
la_oenb[24] I
la_oenb[25] I
la_oenb[26] I
la_oenb[27] I
la_oenb[28] I
la_oenb[29] I
la_oenb[2] I
la_oenb[30] I
la_oenb[31] I
la_oenb[32] I
la_oenb[33] I
la_oenb[34] I
la_oenb[35] I
la_oenb[36] I
la_oenb[37] I
la_oenb[38] I
la_oenb[39] I
la_oenb[3] I
la_oenb[40] I
la_oenb[41] I
la_oenb[42] I
la_oenb[43] I
la_oenb[44] I
la_oenb[45] I
la_oenb[46] I
la_oenb[47] I
la_oenb[48] I
la_oenb[49] I
la_oenb[4] I
la_oenb[50] I
la_oenb[51] I
la_oenb[52] I
la_oenb[53] I
la_oenb[54] I
la_oenb[55] I
la_oenb[56] I
la_oenb[57] I
la_oenb[58] I
la_oenb[59] I
la_oenb[5] I
la_oenb[60] I
la_oenb[61] I
la_oenb[62] I
la_oenb[63] I
la_oenb[6] I
la_oenb[7] I
la_oenb[8] I
la_oenb[9] I
user_clock2 I
user_irq[0] O
user_irq[1] O
user_irq[2] O
wb_clk_i I
wb_rst_i I
wbs_ack_o O
wbs_adr_i[0] I
wbs_adr_i[10] I
wbs_adr_i[11] I
wbs_adr_i[12] I
wbs_adr_i[13] I
wbs_adr_i[14] I
wbs_adr_i[15] I
wbs_adr_i[16] I
wbs_adr_i[17] I
wbs_adr_i[18] I
wbs_adr_i[19] I
wbs_adr_i[1] I
wbs_adr_i[20] I
wbs_adr_i[21] I
wbs_adr_i[22] I
wbs_adr_i[23] I
wbs_adr_i[24] I
wbs_adr_i[25] I
wbs_adr_i[26] I
wbs_adr_i[27] I
wbs_adr_i[28] I
wbs_adr_i[29] I
wbs_adr_i[2] I
wbs_adr_i[30] I
wbs_adr_i[31] I
wbs_adr_i[3] I
wbs_adr_i[4] I
wbs_adr_i[5] I
wbs_adr_i[6] I
wbs_adr_i[7] I
wbs_adr_i[8] I
wbs_adr_i[9] I
wbs_cyc_i I
wbs_dat_i[0] I
wbs_dat_i[10] I
wbs_dat_i[11] I
wbs_dat_i[12] I
wbs_dat_i[13] I
wbs_dat_i[14] I
wbs_dat_i[15] I
wbs_dat_i[16] I
wbs_dat_i[17] I
wbs_dat_i[18] I
wbs_dat_i[19] I
wbs_dat_i[1] I
wbs_dat_i[20] I
wbs_dat_i[21] I
wbs_dat_i[22] I
wbs_dat_i[23] I
wbs_dat_i[24] I
wbs_dat_i[25] I
wbs_dat_i[26] I
wbs_dat_i[27] I
wbs_dat_i[28] I
wbs_dat_i[29] I
wbs_dat_i[2] I
wbs_dat_i[30] I
wbs_dat_i[31] I
wbs_dat_i[3] I
wbs_dat_i[4] I
wbs_dat_i[5] I
wbs_dat_i[6] I
wbs_dat_i[7] I
wbs_dat_i[8] I
wbs_dat_i[9] I
wbs_dat_o[0] O
wbs_dat_o[10] O
wbs_dat_o[11] O
wbs_dat_o[12] O
wbs_dat_o[13] O
wbs_dat_o[14] O
wbs_dat_o[15] O
wbs_dat_o[16] O
wbs_dat_o[17] O
wbs_dat_o[18] O
wbs_dat_o[19] O
wbs_dat_o[1] O
wbs_dat_o[20] O
wbs_dat_o[21] O
wbs_dat_o[22] O
wbs_dat_o[23] O
wbs_dat_o[24] O
wbs_dat_o[25] O
wbs_dat_o[26] O
wbs_dat_o[27] O
wbs_dat_o[28] O
wbs_dat_o[29] O
wbs_dat_o[2] O
wbs_dat_o[30] O
wbs_dat_o[31] O
wbs_dat_o[3] O
wbs_dat_o[4] O
wbs_dat_o[5] O
wbs_dat_o[6] O
wbs_dat_o[7] O
wbs_dat_o[8] O
wbs_dat_o[9] O
wbs_sel_i[0] I
wbs_sel_i[1] I
wbs_sel_i[2] I
wbs_sel_i[3] I
wbs_stb_i I
wbs_we_i I

*D_NET *4 0.367947
*CONN
*P io_in[12] I
*I *438:io_in[0] I *D serv_1
*CAP
1 io_in[12] 0.000902119
2 *438:io_in[0] 0.0719745
3 *4:10 0.0719745
4 *4:8 0.0133088
5 *4:7 0.0142109
6 *4:8 *5:8 0.0150478
7 *4:8 *38:8 0.0693496
8 *4:8 *40:8 0.111179
*RES
1 io_in[12] *4:7 11.925 
2 *4:7 *4:8 367.47 
3 *4:8 *4:10 4.5 
4 *4:10 *438:io_in[0] 564.345 
*END

*D_NET *5 0.447794
*CONN
*P io_in[13] I
*I *438:io_in[1] I *D serv_1
*CAP
1 io_in[13] 0.000945234
2 *438:io_in[1] 0.0888798
3 *5:10 0.0888798
4 *5:8 0.00751897
5 *5:7 0.0084642
6 *5:8 *6:8 0.0100049
7 *5:8 *40:8 0.106171
8 *5:8 *41:8 0.0150829
9 *5:8 *78:8 0.0977549
10 *5:8 *79:8 0.00904394
11 *4:8 *5:8 0.0150478
*RES
1 io_in[13] *5:7 12.285 
2 *5:7 *5:8 418.41 
3 *5:8 *5:10 4.5 
4 *5:10 *438:io_in[1] 563.985 
*END

*D_NET *6 0.386414
*CONN
*P io_in[14] I
*I *438:io_in[2] I *D serv_1
*CAP
1 io_in[14] 0.00127974
2 *438:io_in[2] 0.0718051
3 *6:10 0.0718051
4 *6:8 0.0347396
5 *6:7 0.0360194
6 *6:8 *36:8 0.00914863
7 *6:8 *41:8 0.126141
8 *6:8 *79:8 0.0254707
9 *5:8 *6:8 0.0100049
*RES
1 io_in[14] *6:7 12.825 
2 *6:7 *6:8 469.35 
3 *6:8 *6:10 4.5 
4 *6:10 *438:io_in[2] 563.445 
*END

*D_NET *7 0.273385
*CONN
*P io_in[15] I
*I *438:io_in[3] I *D serv_1
*CAP
1 io_in[15] 0.0660326
2 *438:io_in[3] 0.0706601
3 *7:7 0.0706601
4 *7:5 0.0660326
*RES
1 io_in[15] *7:5 510.345 
2 *7:5 *7:7 4.5 
3 *7:7 *438:io_in[3] 554.085 
*END

*D_NET *8 0.242943
*CONN
*P io_in[16] I
*I *438:io_in[4] I *D serv_1
*CAP
1 io_in[16] 0.000247817
2 *438:io_in[4] 0.0568443
3 *8:15 0.0568443
4 *8:13 0.0643794
5 *8:11 0.0646272
*RES
1 io_in[16] *8:11 2.655 
2 *8:11 *8:13 497.61 
3 *8:13 *8:15 4.5 
4 *8:15 *438:io_in[4] 446.085 
*END

*D_NET *11 0.113351
*CONN
*P io_in[19] I
*I *439:io_in[0] I *D serv_2
*CAP
1 io_in[19] 0.000178873
2 *439:io_in[0] 0.000199409
3 *11:16 0.0164857
4 *11:15 0.0162863
5 *11:13 0.040011
6 *11:11 0.0401899
*RES
1 io_in[19] *11:11 2.115 
2 *11:11 *11:13 309.33 
3 *11:13 *11:15 4.5 
4 *11:15 *11:16 127.53 
5 *11:16 *439:io_in[0] 1.665 
*END

*D_NET *13 0.0823491
*CONN
*P io_in[20] I
*I *439:io_in[1] I *D serv_2
*CAP
1 io_in[20] 0.0382675
2 *439:io_in[1] 0.00290705
3 *13:5 0.0411746
*RES
1 io_in[20] *13:5 295.785 
2 *13:5 *439:io_in[1] 27.675 
*END

*D_NET *14 0.157677
*CONN
*P io_in[21] I
*I *439:io_in[2] I *D serv_2
*CAP
1 io_in[21] 0.0010289
2 *439:io_in[2] 0.000654274
3 *14:11 0.026875
4 *14:10 0.0262207
5 *14:8 0.00578325
6 *14:7 0.00681215
7 *14:8 *15:8 0.0332643
8 *14:8 *16:8 0.00069174
9 *14:11 *15:17 0.0559825
10 *14:11 *55:12 0.000364126
*RES
1 io_in[21] *14:7 12.465 
2 *14:7 *14:8 87.21 
3 *14:8 *14:10 4.5 
4 *14:10 *14:11 273.15 
5 *14:11 *439:io_in[2] 8.865 
*END

*D_NET *15 0.247869
*CONN
*P io_in[22] I
*I *439:io_in[3] I *D serv_2
*CAP
1 io_in[22] 0.00105188
2 *439:io_in[3] 0.000606772
3 *15:17 0.00646804
4 *15:16 0.00643558
5 *15:11 0.0160079
6 *15:10 0.0154336
7 *15:8 0.00730001
8 *15:7 0.00835189
9 *15:8 *16:8 0.075745
10 *15:16 *56:13 0.000255093
11 *15:17 *55:12 0.0209663
12 *14:8 *15:8 0.0332643
13 *14:11 *15:17 0.0559825
*RES
1 io_in[22] *15:7 12.645 
2 *15:7 *15:8 189.45 
3 *15:8 *15:10 4.5 
4 *15:10 *15:11 118.53 
5 *15:11 *15:16 13.41 
6 *15:16 *15:17 142.47 
7 *15:17 *439:io_in[3] 8.325 
*END

*D_NET *16 0.252848
*CONN
*P io_in[23] I
*I *439:io_in[4] I *D serv_2
*CAP
1 io_in[23] 0.00107486
2 *439:io_in[4] 0.00103155
3 *16:11 0.0198109
4 *16:10 0.0187794
5 *16:8 0.0267846
6 *16:7 0.0278595
7 *16:11 *93:10 0.0810708
8 *14:8 *16:8 0.00069174
9 *15:8 *16:8 0.075745
*RES
1 io_in[23] *16:7 12.825 
2 *16:7 *16:8 302.67 
3 *16:8 *16:10 4.5 
4 *16:10 *16:11 247.23 
5 *16:11 *439:io_in[4] 11.565 
*END

*D_NET *34 0.229216
*CONN
*P io_in[5] I
*I *437:io_in[0] I *D serv_0
*CAP
1 io_in[5] 0.000996734
2 *437:io_in[0] 0.0718458
3 *34:10 0.0718458
4 *34:8 0.00630613
5 *34:7 0.00730286
6 *34:8 *35:8 0.00599496
7 *34:8 *37:8 0.00103739
8 *34:8 *38:8 0.00903808
9 *34:8 *40:8 0.0136112
10 *34:8 *78:8 0.0387568
11 *34:8 *79:8 0.00248042
*RES
1 io_in[5] *34:7 12.285 
2 *34:7 *34:8 162.45 
3 *34:8 *34:10 4.5 
4 *34:10 *437:io_in[0] 563.985 
*END

*D_NET *35 0.323801
*CONN
*P io_in[6] I
*I *437:io_in[1] I *D serv_0
*CAP
1 io_in[6] 0.0011025
2 *437:io_in[1] 0.0887465
3 *35:10 0.0887465
4 *35:8 0.00270343
5 *35:7 0.00380593
6 *35:8 *36:8 0.0788601
7 *35:8 *41:8 0.0336579
8 *35:8 *78:8 0.0135881
9 *35:8 *79:8 0.00659495
10 *34:8 *35:8 0.00599496
*RES
1 io_in[6] *35:7 12.825 
2 *35:7 *35:8 213.39 
3 *35:8 *35:10 4.5 
4 *35:10 *437:io_in[1] 563.445 
*END

*D_NET *36 0.290965
*CONN
*P io_in[7] I
*I *437:io_in[2] I *D serv_0
*CAP
1 io_in[7] 0.00117785
2 *437:io_in[2] 0.0717596
3 *36:10 0.0717596
4 *36:8 0.0176249
5 *36:7 0.0188028
6 *36:8 *41:8 0.00717707
7 *36:8 *79:8 0.014655
8 *6:8 *36:8 0.00914863
9 *35:8 *36:8 0.0788601
*RES
1 io_in[7] *36:7 13.005 
2 *36:7 *36:8 264.33 
3 *36:8 *36:10 4.5 
4 *36:10 *437:io_in[2] 563.265 
*END

*D_NET *37 0.30751
*CONN
*P io_in[8] I
*I *437:io_in[3] I *D serv_0
*CAP
1 io_in[8] 0.000859003
2 *437:io_in[3] 0.0719835
3 *37:10 0.0719835
4 *37:8 0.0209035
5 *37:7 0.0217625
6 *37:8 *38:8 0.118981
7 *34:8 *37:8 0.00103739
*RES
1 io_in[8] *37:7 11.565 
2 *37:7 *37:8 315.27 
3 *37:8 *37:10 4.5 
4 *37:10 *437:io_in[3] 564.705 
*END

*D_NET *38 0.411218
*CONN
*P io_in[9] I
*I *437:io_in[4] I *D serv_0
*CAP
1 io_in[9] 0.001115
2 *437:io_in[4] 0.088951
3 *38:10 0.088951
4 *38:8 0.00681111
5 *38:7 0.00792612
6 *38:8 *40:8 0.0200952
7 *4:8 *38:8 0.0693496
8 *34:8 *38:8 0.00903808
9 *37:8 *38:8 0.118981
*RES
1 io_in[9] *38:7 11.745 
2 *38:7 *38:8 366.21 
3 *38:8 *38:10 4.5 
4 *38:10 *437:io_in[4] 564.525 
*END

*D_NET *40 0.451135
*CONN
*P io_oeb[10] O
*I *437:io_oeb[0] O *D serv_0
*CAP
1 io_oeb[10] 0.000940848
2 *437:io_oeb[0] 0.0889164
3 *40:8 0.0030175
4 *40:7 0.00207666
5 *40:5 0.0889164
6 *40:8 *78:8 0.0162106
7 *4:8 *40:8 0.111179
8 *5:8 *40:8 0.106171
9 *34:8 *40:8 0.0136112
10 *38:8 *40:8 0.0200952
*RES
1 *437:io_oeb[0] *40:5 564.165 
2 *40:5 *40:7 4.5 
3 *40:7 *40:8 395.91 
4 *40:8 io_oeb[10] 12.105 
*END

*D_NET *41 0.487424
*CONN
*P io_oeb[11] O
*I *437:io_oeb[1] O *D serv_0
*CAP
1 io_oeb[11] 0.00102266
2 *437:io_oeb[1] 0.071846
3 *41:8 0.00236108
4 *41:7 0.00133841
5 *41:5 0.071846
6 *41:8 *78:8 0.142283
7 *41:8 *79:8 0.0146675
8 *5:8 *41:8 0.0150829
9 *6:8 *41:8 0.126141
10 *35:8 *41:8 0.0336579
11 *36:8 *41:8 0.00717707
*RES
1 *437:io_oeb[1] *41:5 563.625 
2 *41:5 *41:7 4.5 
3 *41:7 *41:8 446.67 
4 *41:8 io_oeb[11] 12.645 
*END

*D_NET *47 0.194226
*CONN
*P io_oeb[17] O
*I *438:io_oeb[0] O *D serv_1
*CAP
1 io_oeb[17] 0.0544588
2 *438:io_oeb[0] 0.042654
3 *47:7 0.0544588
4 *47:5 0.042654
*RES
1 *438:io_oeb[0] *47:5 270.585 
2 *47:5 *47:7 4.5 
3 *47:7 io_oeb[17] 420.885 
*END

*D_NET *48 0.147446
*CONN
*P io_oeb[18] O
*I *438:io_oeb[1] O *D serv_1
*CAP
1 io_oeb[18] 0.000224836
2 *438:io_oeb[1] 0.020688
3 *48:8 0.053035
4 *48:7 0.0528102
5 *48:5 0.020688
*RES
1 *438:io_oeb[1] *48:5 162.585 
2 *48:5 *48:7 4.5 
3 *48:7 *48:8 408.15 
4 *48:8 io_oeb[18] 2.475 
*END

*D_NET *55 0.146132
*CONN
*P io_oeb[24] O
*I *439:io_oeb[0] O *D serv_2
*CAP
1 io_oeb[24] 0.00117627
2 *439:io_oeb[0] 0.000623944
3 *55:18 0.0096682
4 *55:17 0.00849193
5 *55:15 0.0484319
6 *55:14 0.0484319
7 *55:12 0.00367689
8 *55:11 0.00430084
9 *55:15 *56:13 0
10 *14:11 *55:12 0.000364126
11 *15:17 *55:12 0.0209663
*RES
1 *439:io_oeb[0] *55:11 8.415 
2 *55:11 *55:12 55.53 
3 *55:12 *55:14 4.5 
4 *55:14 *55:15 379.89 
5 *55:15 *55:17 4.5 
6 *55:17 *55:18 65.43 
7 *55:18 io_oeb[24] 13.365 
*END

*D_NET *56 0.12382
*CONN
*P io_oeb[25] O
*I *439:io_oeb[1] O *D serv_2
*CAP
1 io_oeb[25] 0.00102105
2 *439:io_oeb[1] 0.00106348
3 *56:13 0.0500435
4 *56:12 0.051688
5 *56:9 0.003729
6 *56:12 *93:10 0.0160199
7 *15:16 *56:13 0.000255093
8 *55:15 *56:13 0
*RES
1 *439:io_oeb[1] *56:9 11.565 
2 *56:9 *56:12 45.27 
3 *56:12 *56:13 385.29 
4 *56:13 io_oeb[25] 16.335 
*END

*D_NET *78 0.471783
*CONN
*P io_out[10] O
*I *437:io_out[0] O *D serv_0
*CAP
1 io_out[10] 0.00101831
2 *437:io_out[0] 0.0718586
3 *78:8 0.00278196
4 *78:7 0.00176365
5 *78:5 0.0718586
6 *78:8 *79:8 0.0139088
7 *5:8 *78:8 0.0977549
8 *34:8 *78:8 0.0387568
9 *35:8 *78:8 0.0135881
10 *40:8 *78:8 0.0162106
11 *41:8 *78:8 0.142283
*RES
1 *437:io_out[0] *78:5 563.805 
2 *78:5 *78:7 4.5 
3 *78:7 *78:8 438.39 
4 *78:8 io_out[10] 12.465 
*END

*D_NET *79 0.352248
*CONN
*P io_out[11] O
*I *437:io_out[1] O *D serv_0
*CAP
1 io_out[11] 0.00106815
2 *437:io_out[1] 0.0718051
3 *79:8 0.0609081
4 *79:7 0.05984
5 *79:5 0.0718051
6 *5:8 *79:8 0.00904394
7 *6:8 *79:8 0.0254707
8 *34:8 *79:8 0.00248042
9 *35:8 *79:8 0.00659495
10 *36:8 *79:8 0.014655
11 *41:8 *79:8 0.0146675
12 *78:8 *79:8 0.0139088
*RES
1 *437:io_out[1] *79:5 563.445 
2 *79:5 *79:7 4.5 
3 *79:7 *79:8 489.33 
4 *79:8 io_out[11] 12.825 
*END

*D_NET *85 0.203399
*CONN
*P io_out[17] O
*I *438:io_out[0] O *D serv_1
*CAP
1 io_out[17] 0.00160871
2 *438:io_out[0] 0.0389448
3 *85:8 0.0627546
4 *85:7 0.0611459
5 *85:5 0.0389448
*RES
1 *438:io_out[0] *85:5 305.685 
2 *85:5 *85:7 4.5 
3 *85:7 *85:8 472.5 
4 *85:8 io_out[17] 12.645 
*END

*D_NET *86 0.173033
*CONN
*P io_out[18] O
*I *438:io_out[1] O *D serv_1
*CAP
1 io_out[18] 0.000308285
2 *438:io_out[1] 0.025129
3 *86:8 0.0613877
4 *86:7 0.0610794
5 *86:5 0.025129
*RES
1 *438:io_out[1] *86:5 197.685 
2 *86:5 *86:7 4.5 
3 *86:7 *86:8 472.05 
4 *86:8 io_out[18] 2.835 
*END

*D_NET *93 0.220836
*CONN
*P io_out[24] O
*I *439:io_out[0] O *D serv_2
*CAP
1 io_out[24] 0.00242379
2 *439:io_out[0] 0.0010507
3 *93:13 0.0500311
4 *93:12 0.0476073
5 *93:10 0.0107911
6 *93:9 0.0118418
7 *16:11 *93:10 0.0810708
8 *56:12 *93:10 0.0160199
*RES
1 *439:io_out[0] *93:9 11.745 
2 *93:9 *93:10 206.19 
3 *93:10 *93:12 4.5 
4 *93:12 *93:13 372.96 
5 *93:13 io_out[24] 18.585 
*END

*D_NET *94 0.136013
*CONN
*P io_out[25] O
*I *439:io_out[1] O *D serv_2
*CAP
1 io_out[25] 0.000323383
2 *439:io_out[1] 0.00136966
3 *94:13 0.0506636
4 *94:12 0.0503403
5 *94:10 0.0159731
6 *94:9 0.0173428
*RES
1 *439:io_out[1] *94:9 14.265 
2 *94:9 *94:10 123.21 
3 *94:10 *94:12 4.5 
4 *94:12 *94:13 393.75 
5 *94:13 io_out[25] 3.015 
*END
