*SPEF "ieee 1481-1999"
*DESIGN "user_project_wrapper"
*DATE "11:11:11 Fri 11 11, 1111"
*VENDOR "OpenRCX"
*PROGRAM "Parallel Extraction"
*VERSION "1.0"
*DESIGN_FLOW "NAME_SCOPE LOCAL" "PIN_CAP NONE"
*DIVIDER /
*DELIMITER :
*BUS_DELIMITER []
*T_UNIT 1 NS
*C_UNIT 1 PF
*R_UNIT 1 OHM
*L_UNIT 1 HENRY

*NAME_MAP
*1 io_in[0]
*2 io_in[10]
*3 io_in[11]
*4 io_in[12]
*5 io_in[13]
*6 io_in[14]
*7 io_in[15]
*8 io_in[16]
*9 io_in[17]
*10 io_in[18]
*11 io_in[19]
*12 io_in[1]
*13 io_in[20]
*14 io_in[21]
*15 io_in[22]
*16 io_in[23]
*17 io_in[24]
*18 io_in[25]
*19 io_in[26]
*20 io_in[27]
*21 io_in[28]
*22 io_in[29]
*23 io_in[2]
*24 io_in[30]
*25 io_in[31]
*26 io_in[32]
*27 io_in[33]
*28 io_in[34]
*29 io_in[35]
*30 io_in[36]
*31 io_in[37]
*32 io_in[3]
*33 io_in[4]
*34 io_in[5]
*35 io_in[6]
*36 io_in[7]
*37 io_in[8]
*38 io_in[9]
*39 io_oeb[0]
*40 io_oeb[10]
*41 io_oeb[11]
*42 io_oeb[12]
*43 io_oeb[13]
*44 io_oeb[14]
*45 io_oeb[15]
*46 io_oeb[16]
*47 io_oeb[17]
*48 io_oeb[18]
*49 io_oeb[19]
*50 io_oeb[1]
*51 io_oeb[20]
*52 io_oeb[21]
*53 io_oeb[22]
*54 io_oeb[23]
*55 io_oeb[24]
*56 io_oeb[25]
*57 io_oeb[26]
*58 io_oeb[27]
*59 io_oeb[28]
*60 io_oeb[29]
*61 io_oeb[2]
*62 io_oeb[30]
*63 io_oeb[31]
*64 io_oeb[32]
*65 io_oeb[33]
*66 io_oeb[34]
*67 io_oeb[35]
*68 io_oeb[36]
*69 io_oeb[37]
*70 io_oeb[3]
*71 io_oeb[4]
*72 io_oeb[5]
*73 io_oeb[6]
*74 io_oeb[7]
*75 io_oeb[8]
*76 io_oeb[9]
*77 io_out[0]
*78 io_out[10]
*79 io_out[11]
*80 io_out[12]
*81 io_out[13]
*82 io_out[14]
*83 io_out[15]
*84 io_out[16]
*85 io_out[17]
*86 io_out[18]
*87 io_out[19]
*88 io_out[1]
*89 io_out[20]
*90 io_out[21]
*91 io_out[22]
*92 io_out[23]
*93 io_out[24]
*94 io_out[25]
*95 io_out[26]
*96 io_out[27]
*97 io_out[28]
*98 io_out[29]
*99 io_out[2]
*100 io_out[30]
*101 io_out[31]
*102 io_out[32]
*103 io_out[33]
*104 io_out[34]
*105 io_out[35]
*106 io_out[36]
*107 io_out[37]
*108 io_out[3]
*109 io_out[4]
*110 io_out[5]
*111 io_out[6]
*112 io_out[7]
*113 io_out[8]
*114 io_out[9]
*115 la_data_in[0]
*116 la_data_in[10]
*117 la_data_in[11]
*118 la_data_in[12]
*119 la_data_in[13]
*120 la_data_in[14]
*121 la_data_in[15]
*122 la_data_in[16]
*123 la_data_in[17]
*124 la_data_in[18]
*125 la_data_in[19]
*126 la_data_in[1]
*127 la_data_in[20]
*128 la_data_in[21]
*129 la_data_in[22]
*130 la_data_in[23]
*131 la_data_in[24]
*132 la_data_in[25]
*133 la_data_in[26]
*134 la_data_in[27]
*135 la_data_in[28]
*136 la_data_in[29]
*137 la_data_in[2]
*138 la_data_in[30]
*139 la_data_in[31]
*140 la_data_in[32]
*141 la_data_in[33]
*142 la_data_in[34]
*143 la_data_in[35]
*144 la_data_in[36]
*145 la_data_in[37]
*146 la_data_in[38]
*147 la_data_in[39]
*148 la_data_in[3]
*149 la_data_in[40]
*150 la_data_in[41]
*151 la_data_in[42]
*152 la_data_in[43]
*153 la_data_in[44]
*154 la_data_in[45]
*155 la_data_in[46]
*156 la_data_in[47]
*157 la_data_in[48]
*158 la_data_in[49]
*159 la_data_in[4]
*160 la_data_in[50]
*161 la_data_in[51]
*162 la_data_in[52]
*163 la_data_in[53]
*164 la_data_in[54]
*165 la_data_in[55]
*166 la_data_in[56]
*167 la_data_in[57]
*168 la_data_in[58]
*169 la_data_in[59]
*170 la_data_in[5]
*171 la_data_in[60]
*172 la_data_in[61]
*173 la_data_in[62]
*174 la_data_in[63]
*175 la_data_in[6]
*176 la_data_in[7]
*177 la_data_in[8]
*178 la_data_in[9]
*179 la_data_out[0]
*180 la_data_out[10]
*181 la_data_out[11]
*182 la_data_out[12]
*183 la_data_out[13]
*184 la_data_out[14]
*185 la_data_out[15]
*186 la_data_out[16]
*187 la_data_out[17]
*188 la_data_out[18]
*189 la_data_out[19]
*190 la_data_out[1]
*191 la_data_out[20]
*192 la_data_out[21]
*193 la_data_out[22]
*194 la_data_out[23]
*195 la_data_out[24]
*196 la_data_out[25]
*197 la_data_out[26]
*198 la_data_out[27]
*199 la_data_out[28]
*200 la_data_out[29]
*201 la_data_out[2]
*202 la_data_out[30]
*203 la_data_out[31]
*204 la_data_out[32]
*205 la_data_out[33]
*206 la_data_out[34]
*207 la_data_out[35]
*208 la_data_out[36]
*209 la_data_out[37]
*210 la_data_out[38]
*211 la_data_out[39]
*212 la_data_out[3]
*213 la_data_out[40]
*214 la_data_out[41]
*215 la_data_out[42]
*216 la_data_out[43]
*217 la_data_out[44]
*218 la_data_out[45]
*219 la_data_out[46]
*220 la_data_out[47]
*221 la_data_out[48]
*222 la_data_out[49]
*223 la_data_out[4]
*224 la_data_out[50]
*225 la_data_out[51]
*226 la_data_out[52]
*227 la_data_out[53]
*228 la_data_out[54]
*229 la_data_out[55]
*230 la_data_out[56]
*231 la_data_out[57]
*232 la_data_out[58]
*233 la_data_out[59]
*234 la_data_out[5]
*235 la_data_out[60]
*236 la_data_out[61]
*237 la_data_out[62]
*238 la_data_out[63]
*239 la_data_out[6]
*240 la_data_out[7]
*241 la_data_out[8]
*242 la_data_out[9]
*243 la_oenb[0]
*244 la_oenb[10]
*245 la_oenb[11]
*246 la_oenb[12]
*247 la_oenb[13]
*248 la_oenb[14]
*249 la_oenb[15]
*250 la_oenb[16]
*251 la_oenb[17]
*252 la_oenb[18]
*253 la_oenb[19]
*254 la_oenb[1]
*255 la_oenb[20]
*256 la_oenb[21]
*257 la_oenb[22]
*258 la_oenb[23]
*259 la_oenb[24]
*260 la_oenb[25]
*261 la_oenb[26]
*262 la_oenb[27]
*263 la_oenb[28]
*264 la_oenb[29]
*265 la_oenb[2]
*266 la_oenb[30]
*267 la_oenb[31]
*268 la_oenb[32]
*269 la_oenb[33]
*270 la_oenb[34]
*271 la_oenb[35]
*272 la_oenb[36]
*273 la_oenb[37]
*274 la_oenb[38]
*275 la_oenb[39]
*276 la_oenb[3]
*277 la_oenb[40]
*278 la_oenb[41]
*279 la_oenb[42]
*280 la_oenb[43]
*281 la_oenb[44]
*282 la_oenb[45]
*283 la_oenb[46]
*284 la_oenb[47]
*285 la_oenb[48]
*286 la_oenb[49]
*287 la_oenb[4]
*288 la_oenb[50]
*289 la_oenb[51]
*290 la_oenb[52]
*291 la_oenb[53]
*292 la_oenb[54]
*293 la_oenb[55]
*294 la_oenb[56]
*295 la_oenb[57]
*296 la_oenb[58]
*297 la_oenb[59]
*298 la_oenb[5]
*299 la_oenb[60]
*300 la_oenb[61]
*301 la_oenb[62]
*302 la_oenb[63]
*303 la_oenb[6]
*304 la_oenb[7]
*305 la_oenb[8]
*306 la_oenb[9]
*307 user_clock2
*308 user_irq[0]
*309 user_irq[1]
*310 user_irq[2]
*313 wb_clk_i
*314 wb_rst_i
*315 wbs_ack_o
*316 wbs_adr_i[0]
*317 wbs_adr_i[10]
*318 wbs_adr_i[11]
*319 wbs_adr_i[12]
*320 wbs_adr_i[13]
*321 wbs_adr_i[14]
*322 wbs_adr_i[15]
*323 wbs_adr_i[16]
*324 wbs_adr_i[17]
*325 wbs_adr_i[18]
*326 wbs_adr_i[19]
*327 wbs_adr_i[1]
*328 wbs_adr_i[20]
*329 wbs_adr_i[21]
*330 wbs_adr_i[22]
*331 wbs_adr_i[23]
*332 wbs_adr_i[24]
*333 wbs_adr_i[25]
*334 wbs_adr_i[26]
*335 wbs_adr_i[27]
*336 wbs_adr_i[28]
*337 wbs_adr_i[29]
*338 wbs_adr_i[2]
*339 wbs_adr_i[30]
*340 wbs_adr_i[31]
*341 wbs_adr_i[3]
*342 wbs_adr_i[4]
*343 wbs_adr_i[5]
*344 wbs_adr_i[6]
*345 wbs_adr_i[7]
*346 wbs_adr_i[8]
*347 wbs_adr_i[9]
*348 wbs_cyc_i
*349 wbs_dat_i[0]
*350 wbs_dat_i[10]
*351 wbs_dat_i[11]
*352 wbs_dat_i[12]
*353 wbs_dat_i[13]
*354 wbs_dat_i[14]
*355 wbs_dat_i[15]
*356 wbs_dat_i[16]
*357 wbs_dat_i[17]
*358 wbs_dat_i[18]
*359 wbs_dat_i[19]
*360 wbs_dat_i[1]
*361 wbs_dat_i[20]
*362 wbs_dat_i[21]
*363 wbs_dat_i[22]
*364 wbs_dat_i[23]
*365 wbs_dat_i[24]
*366 wbs_dat_i[25]
*367 wbs_dat_i[26]
*368 wbs_dat_i[27]
*369 wbs_dat_i[28]
*370 wbs_dat_i[29]
*371 wbs_dat_i[2]
*372 wbs_dat_i[30]
*373 wbs_dat_i[31]
*374 wbs_dat_i[3]
*375 wbs_dat_i[4]
*376 wbs_dat_i[5]
*377 wbs_dat_i[6]
*378 wbs_dat_i[7]
*379 wbs_dat_i[8]
*380 wbs_dat_i[9]
*381 wbs_dat_o[0]
*382 wbs_dat_o[10]
*383 wbs_dat_o[11]
*384 wbs_dat_o[12]
*385 wbs_dat_o[13]
*386 wbs_dat_o[14]
*387 wbs_dat_o[15]
*388 wbs_dat_o[16]
*389 wbs_dat_o[17]
*390 wbs_dat_o[18]
*391 wbs_dat_o[19]
*392 wbs_dat_o[1]
*393 wbs_dat_o[20]
*394 wbs_dat_o[21]
*395 wbs_dat_o[22]
*396 wbs_dat_o[23]
*397 wbs_dat_o[24]
*398 wbs_dat_o[25]
*399 wbs_dat_o[26]
*400 wbs_dat_o[27]
*401 wbs_dat_o[28]
*402 wbs_dat_o[29]
*403 wbs_dat_o[2]
*404 wbs_dat_o[30]
*405 wbs_dat_o[31]
*406 wbs_dat_o[3]
*407 wbs_dat_o[4]
*408 wbs_dat_o[5]
*409 wbs_dat_o[6]
*410 wbs_dat_o[7]
*411 wbs_dat_o[8]
*412 wbs_dat_o[9]
*413 wbs_sel_i[0]
*414 wbs_sel_i[1]
*415 wbs_sel_i[2]
*416 wbs_sel_i[3]
*417 wbs_stb_i
*418 wbs_we_i
*419 mprj

*PORTS
io_in[0] I
io_in[10] I
io_in[11] I
io_in[12] I
io_in[13] I
io_in[14] I
io_in[15] I
io_in[16] I
io_in[17] I
io_in[18] I
io_in[19] I
io_in[1] I
io_in[20] I
io_in[21] I
io_in[22] I
io_in[23] I
io_in[24] I
io_in[25] I
io_in[26] I
io_in[27] I
io_in[28] I
io_in[29] I
io_in[2] I
io_in[30] I
io_in[31] I
io_in[32] I
io_in[33] I
io_in[34] I
io_in[35] I
io_in[36] I
io_in[37] I
io_in[3] I
io_in[4] I
io_in[5] I
io_in[6] I
io_in[7] I
io_in[8] I
io_in[9] I
io_oeb[0] O
io_oeb[10] O
io_oeb[11] O
io_oeb[12] O
io_oeb[13] O
io_oeb[14] O
io_oeb[15] O
io_oeb[16] O
io_oeb[17] O
io_oeb[18] O
io_oeb[19] O
io_oeb[1] O
io_oeb[20] O
io_oeb[21] O
io_oeb[22] O
io_oeb[23] O
io_oeb[24] O
io_oeb[25] O
io_oeb[26] O
io_oeb[27] O
io_oeb[28] O
io_oeb[29] O
io_oeb[2] O
io_oeb[30] O
io_oeb[31] O
io_oeb[32] O
io_oeb[33] O
io_oeb[34] O
io_oeb[35] O
io_oeb[36] O
io_oeb[37] O
io_oeb[3] O
io_oeb[4] O
io_oeb[5] O
io_oeb[6] O
io_oeb[7] O
io_oeb[8] O
io_oeb[9] O
io_out[0] O
io_out[10] O
io_out[11] O
io_out[12] O
io_out[13] O
io_out[14] O
io_out[15] O
io_out[16] O
io_out[17] O
io_out[18] O
io_out[19] O
io_out[1] O
io_out[20] O
io_out[21] O
io_out[22] O
io_out[23] O
io_out[24] O
io_out[25] O
io_out[26] O
io_out[27] O
io_out[28] O
io_out[29] O
io_out[2] O
io_out[30] O
io_out[31] O
io_out[32] O
io_out[33] O
io_out[34] O
io_out[35] O
io_out[36] O
io_out[37] O
io_out[3] O
io_out[4] O
io_out[5] O
io_out[6] O
io_out[7] O
io_out[8] O
io_out[9] O
la_data_in[0] I
la_data_in[10] I
la_data_in[11] I
la_data_in[12] I
la_data_in[13] I
la_data_in[14] I
la_data_in[15] I
la_data_in[16] I
la_data_in[17] I
la_data_in[18] I
la_data_in[19] I
la_data_in[1] I
la_data_in[20] I
la_data_in[21] I
la_data_in[22] I
la_data_in[23] I
la_data_in[24] I
la_data_in[25] I
la_data_in[26] I
la_data_in[27] I
la_data_in[28] I
la_data_in[29] I
la_data_in[2] I
la_data_in[30] I
la_data_in[31] I
la_data_in[32] I
la_data_in[33] I
la_data_in[34] I
la_data_in[35] I
la_data_in[36] I
la_data_in[37] I
la_data_in[38] I
la_data_in[39] I
la_data_in[3] I
la_data_in[40] I
la_data_in[41] I
la_data_in[42] I
la_data_in[43] I
la_data_in[44] I
la_data_in[45] I
la_data_in[46] I
la_data_in[47] I
la_data_in[48] I
la_data_in[49] I
la_data_in[4] I
la_data_in[50] I
la_data_in[51] I
la_data_in[52] I
la_data_in[53] I
la_data_in[54] I
la_data_in[55] I
la_data_in[56] I
la_data_in[57] I
la_data_in[58] I
la_data_in[59] I
la_data_in[5] I
la_data_in[60] I
la_data_in[61] I
la_data_in[62] I
la_data_in[63] I
la_data_in[6] I
la_data_in[7] I
la_data_in[8] I
la_data_in[9] I
la_data_out[0] O
la_data_out[10] O
la_data_out[11] O
la_data_out[12] O
la_data_out[13] O
la_data_out[14] O
la_data_out[15] O
la_data_out[16] O
la_data_out[17] O
la_data_out[18] O
la_data_out[19] O
la_data_out[1] O
la_data_out[20] O
la_data_out[21] O
la_data_out[22] O
la_data_out[23] O
la_data_out[24] O
la_data_out[25] O
la_data_out[26] O
la_data_out[27] O
la_data_out[28] O
la_data_out[29] O
la_data_out[2] O
la_data_out[30] O
la_data_out[31] O
la_data_out[32] O
la_data_out[33] O
la_data_out[34] O
la_data_out[35] O
la_data_out[36] O
la_data_out[37] O
la_data_out[38] O
la_data_out[39] O
la_data_out[3] O
la_data_out[40] O
la_data_out[41] O
la_data_out[42] O
la_data_out[43] O
la_data_out[44] O
la_data_out[45] O
la_data_out[46] O
la_data_out[47] O
la_data_out[48] O
la_data_out[49] O
la_data_out[4] O
la_data_out[50] O
la_data_out[51] O
la_data_out[52] O
la_data_out[53] O
la_data_out[54] O
la_data_out[55] O
la_data_out[56] O
la_data_out[57] O
la_data_out[58] O
la_data_out[59] O
la_data_out[5] O
la_data_out[60] O
la_data_out[61] O
la_data_out[62] O
la_data_out[63] O
la_data_out[6] O
la_data_out[7] O
la_data_out[8] O
la_data_out[9] O
la_oenb[0] I
la_oenb[10] I
la_oenb[11] I
la_oenb[12] I
la_oenb[13] I
la_oenb[14] I
la_oenb[15] I
la_oenb[16] I
la_oenb[17] I
la_oenb[18] I
la_oenb[19] I
la_oenb[1] I
la_oenb[20] I
la_oenb[21] I
la_oenb[22] I
la_oenb[23] I
la_oenb[24] I
la_oenb[25] I
la_oenb[26] I
la_oenb[27] I
la_oenb[28] I
la_oenb[29] I
la_oenb[2] I
la_oenb[30] I
la_oenb[31] I
la_oenb[32] I
la_oenb[33] I
la_oenb[34] I
la_oenb[35] I
la_oenb[36] I
la_oenb[37] I
la_oenb[38] I
la_oenb[39] I
la_oenb[3] I
la_oenb[40] I
la_oenb[41] I
la_oenb[42] I
la_oenb[43] I
la_oenb[44] I
la_oenb[45] I
la_oenb[46] I
la_oenb[47] I
la_oenb[48] I
la_oenb[49] I
la_oenb[4] I
la_oenb[50] I
la_oenb[51] I
la_oenb[52] I
la_oenb[53] I
la_oenb[54] I
la_oenb[55] I
la_oenb[56] I
la_oenb[57] I
la_oenb[58] I
la_oenb[59] I
la_oenb[5] I
la_oenb[60] I
la_oenb[61] I
la_oenb[62] I
la_oenb[63] I
la_oenb[6] I
la_oenb[7] I
la_oenb[8] I
la_oenb[9] I
user_clock2 I
user_irq[0] O
user_irq[1] O
user_irq[2] O
wb_clk_i I
wb_rst_i I
wbs_ack_o O
wbs_adr_i[0] I
wbs_adr_i[10] I
wbs_adr_i[11] I
wbs_adr_i[12] I
wbs_adr_i[13] I
wbs_adr_i[14] I
wbs_adr_i[15] I
wbs_adr_i[16] I
wbs_adr_i[17] I
wbs_adr_i[18] I
wbs_adr_i[19] I
wbs_adr_i[1] I
wbs_adr_i[20] I
wbs_adr_i[21] I
wbs_adr_i[22] I
wbs_adr_i[23] I
wbs_adr_i[24] I
wbs_adr_i[25] I
wbs_adr_i[26] I
wbs_adr_i[27] I
wbs_adr_i[28] I
wbs_adr_i[29] I
wbs_adr_i[2] I
wbs_adr_i[30] I
wbs_adr_i[31] I
wbs_adr_i[3] I
wbs_adr_i[4] I
wbs_adr_i[5] I
wbs_adr_i[6] I
wbs_adr_i[7] I
wbs_adr_i[8] I
wbs_adr_i[9] I
wbs_cyc_i I
wbs_dat_i[0] I
wbs_dat_i[10] I
wbs_dat_i[11] I
wbs_dat_i[12] I
wbs_dat_i[13] I
wbs_dat_i[14] I
wbs_dat_i[15] I
wbs_dat_i[16] I
wbs_dat_i[17] I
wbs_dat_i[18] I
wbs_dat_i[19] I
wbs_dat_i[1] I
wbs_dat_i[20] I
wbs_dat_i[21] I
wbs_dat_i[22] I
wbs_dat_i[23] I
wbs_dat_i[24] I
wbs_dat_i[25] I
wbs_dat_i[26] I
wbs_dat_i[27] I
wbs_dat_i[28] I
wbs_dat_i[29] I
wbs_dat_i[2] I
wbs_dat_i[30] I
wbs_dat_i[31] I
wbs_dat_i[3] I
wbs_dat_i[4] I
wbs_dat_i[5] I
wbs_dat_i[6] I
wbs_dat_i[7] I
wbs_dat_i[8] I
wbs_dat_i[9] I
wbs_dat_o[0] O
wbs_dat_o[10] O
wbs_dat_o[11] O
wbs_dat_o[12] O
wbs_dat_o[13] O
wbs_dat_o[14] O
wbs_dat_o[15] O
wbs_dat_o[16] O
wbs_dat_o[17] O
wbs_dat_o[18] O
wbs_dat_o[19] O
wbs_dat_o[1] O
wbs_dat_o[20] O
wbs_dat_o[21] O
wbs_dat_o[22] O
wbs_dat_o[23] O
wbs_dat_o[24] O
wbs_dat_o[25] O
wbs_dat_o[26] O
wbs_dat_o[27] O
wbs_dat_o[28] O
wbs_dat_o[29] O
wbs_dat_o[2] O
wbs_dat_o[30] O
wbs_dat_o[31] O
wbs_dat_o[3] O
wbs_dat_o[4] O
wbs_dat_o[5] O
wbs_dat_o[6] O
wbs_dat_o[7] O
wbs_dat_o[8] O
wbs_dat_o[9] O
wbs_sel_i[0] I
wbs_sel_i[1] I
wbs_sel_i[2] I
wbs_sel_i[3] I
wbs_stb_i I
wbs_we_i I

*D_NET *1 0.598755
*CONN
*P io_in[0] I
*I *419:io_in[0] I *D tiny_user_project
*CAP
1 io_in[0] 0.00056558
2 *419:io_in[0] 0.000841414
3 *1:11 0.0449711
4 *1:10 0.0441297
5 *1:8 0.023778
6 *1:7 0.0243436
7 *419:io_in[0] *28:16 0
8 *419:io_in[0] *39:7 0
9 *1:8 *77:11 0.128225
10 *1:8 *302:11 0.000612104
11 *1:11 *419:io_in[18] 0.000534893
12 *1:11 *419:io_in[19] 0.00151477
13 *1:11 *27:19 0.0704519
14 *1:11 *34:15 0.00523607
15 *1:11 *45:10 0.000739755
16 *1:11 *46:10 0.000739755
17 *1:11 *48:10 0.000812644
18 *1:11 *72:13 0.000750025
19 *1:11 *80:8 0
20 *1:11 *89:8 0.0109526
21 *1:11 *92:8 0.00834255
22 *1:11 *113:8 0
23 *1:11 *308:8 0.231213
*RES
1 io_in[0] *1:7 8.685 
2 *1:7 *1:8 347.49 
3 *1:8 *1:10 4.5 
4 *1:10 *1:11 785.43 
5 *1:11 *419:io_in[0] 10.305 
*END

*D_NET *2 0.446141
*CONN
*P io_in[10] I
*I *419:io_in[10] I *D tiny_user_project
*CAP
1 io_in[10] 0.000337233
2 *419:io_in[10] 0.00147628
3 *2:11 0.0947629
4 *2:10 0.0932867
5 *2:8 0.00239814
6 *2:7 0.00273537
7 *419:io_in[10] *40:5 0
8 *419:io_in[10] *112:11 0.000132765
9 *419:io_in[10] *114:7 0
10 *2:8 *3:8 0.0994941
11 *2:8 *4:8 0.000582904
12 *2:8 *32:8 0.00270599
13 *2:8 *38:8 0.00526118
14 *2:8 *40:11 0.0941694
15 *2:8 *50:11 0.00108913
16 *2:8 *61:11 0.000310677
17 *2:11 *33:11 0
18 *2:11 *53:10 0.00105461
19 *2:11 *53:12 0.0209909
20 *2:11 *54:10 0.00342146
21 *2:11 *62:8 0.0124362
22 *2:11 *105:8 0.0094947
*RES
1 io_in[10] *2:7 7.065 
2 *2:7 *2:8 285.57 
3 *2:8 *2:10 4.5 
4 *2:10 *2:11 733.05 
5 *2:11 *419:io_in[10] 14.265 
*END

*D_NET *3 0.432382
*CONN
*P io_in[11] I
*I *419:io_in[11] I *D tiny_user_project
*CAP
1 io_in[11] 0.000341619
2 *419:io_in[11] 0.00621378
3 *3:11 0.099808
4 *3:10 0.0935942
5 *3:8 0.00225034
6 *3:7 0.00259196
7 *419:io_in[11] *41:5 0
8 *419:io_in[11] *55:11 0
9 *419:io_in[11] *78:7 0
10 *3:8 *4:8 0.000444785
11 *3:8 *7:11 0.00190314
12 *3:8 *40:11 0.00757012
13 *3:8 *41:11 0.11817
14 *3:11 *26:13 0
15 *2:8 *3:8 0.0994941
*RES
1 io_in[11] *3:7 7.245 
2 *3:7 *3:8 316.89 
3 *3:8 *3:10 4.5 
4 *3:10 *3:11 727.47 
5 *3:11 *419:io_in[11] 46.665 
*END

*D_NET *4 0.52371
*CONN
*P io_in[12] I
*I *419:io_in[12] I *D tiny_user_project
*CAP
1 io_in[12] 0.000462193
2 *419:io_in[12] 0.00191054
3 *4:11 0.0837089
4 *4:10 0.0817983
5 *4:8 0.00137482
6 *4:7 0.00183701
7 *419:io_in[12] *42:5 0
8 *419:io_in[12] *79:7 0
9 *4:8 *5:8 0.00636667
10 *4:8 *7:11 0.00284181
11 *4:8 *39:11 0.00692258
12 *4:8 *42:11 0.141113
13 *4:8 *43:11 0.140056
14 *4:8 *50:11 0.00798806
15 *4:11 *19:11 0.0297989
16 *4:11 *49:8 0.0165027
17 *2:8 *4:8 0.000582904
18 *3:8 *4:8 0.000444785
*RES
1 io_in[12] *4:7 7.965 
2 *4:7 *4:8 410.31 
3 *4:8 *4:10 4.5 
4 *4:10 *4:11 721.35 
5 *4:11 *419:io_in[12] 16.965 
*END

*D_NET *5 0.562495
*CONN
*P io_in[13] I
*I *419:io_in[13] I *D tiny_user_project
*CAP
1 io_in[13] 0.000505293
2 *419:io_in[13] 0.003519
3 *5:11 0.090822
4 *5:10 0.087303
5 *5:8 0.000792225
6 *5:7 0.00129752
7 *419:io_in[13] *43:5 0
8 *419:io_in[13] *80:7 0
9 *5:8 *6:8 0.173572
10 *5:8 *39:11 0.00269284
11 *5:8 *43:11 0.165117
12 *5:8 *44:11 0.00112932
13 *5:8 *77:11 0.00586783
14 *5:11 *72:14 0
15 *5:11 *91:10 0.0202059
16 *5:11 *102:8 0.00330471
17 *4:8 *5:8 0.00636667
*RES
1 io_in[13] *5:7 8.325 
2 *5:7 *5:8 463.23 
3 *5:8 *5:10 4.5 
4 *5:10 *5:11 715.59 
5 *5:11 *419:io_in[13] 27.765 
*END

*D_NET *6 0.582865
*CONN
*P io_in[14] I
*I *419:io_in[14] I *D tiny_user_project
*CAP
1 io_in[14] 0.000634044
2 *419:io_in[14] 0.00757625
3 *6:11 0.0987601
4 *6:10 0.0911839
5 *6:8 0.0014805
6 *6:7 0.00211455
7 *419:io_in[14] *44:7 0
8 *419:io_in[14] *81:7 0
9 *6:8 *7:11 0.00137213
10 *6:8 *43:11 0.00754219
11 *6:8 *44:11 0.19863
12 *6:11 *26:13 0
13 *5:8 *6:8 0.173572
*RES
1 io_in[14] *6:7 8.505 
2 *6:7 *6:8 505.35 
3 *6:8 *6:10 4.5 
4 *6:10 *6:11 710.01 
5 *6:11 *419:io_in[14] 49.365 
*END

*D_NET *7 0.543806
*CONN
*P io_in[15] I
*I *419:io_in[15] I *D tiny_user_project
*CAP
1 io_in[15] 0.00288339
2 *419:io_in[15] 0.00704697
3 *7:16 0.00704697
4 *7:14 0.0906489
5 *7:13 0.0906489
6 *7:11 0.0175697
7 *7:10 0.0204531
8 *419:io_in[15] *45:10 0
9 *419:io_in[15] *82:5 0
10 *7:11 *41:11 0.134889
11 *7:11 *42:11 0.157809
12 *7:11 *43:11 0.00748311
13 *7:11 *44:11 0.00120978
14 *3:8 *7:11 0.00190314
15 *4:8 *7:11 0.00284181
16 *6:8 *7:11 0.00137213
*RES
1 io_in[15] *7:10 32.175 
2 *7:10 *7:11 547.65 
3 *7:11 *7:13 4.5 
4 *7:13 *7:14 705.51 
5 *7:14 *7:16 4.5 
6 *7:16 *419:io_in[15] 47.565 
*END

*D_NET *8 0.605629
*CONN
*P io_in[16] I
*I *419:io_in[16] I *D tiny_user_project
*CAP
1 io_in[16] 0.000523307
2 *419:io_in[16] 0.0789147
3 *8:10 0.0789147
4 *8:8 0.00674544
5 *8:7 0.00726875
6 *419:io_in[16] *45:11 0
7 *419:io_in[16] *46:10 0
8 *8:8 *16:8 0.000329405
9 *8:8 *45:14 0.231361
10 *8:8 *46:14 0.201572
*RES
1 io_in[16] *8:7 8.505 
2 *8:7 *8:8 579.15 
3 *8:8 *8:10 4.5 
4 *8:10 *419:io_in[16] 599.985 
*END

*D_NET *9 0.391254
*CONN
*P io_in[17] I
*I *419:io_in[17] I *D tiny_user_project
*CAP
1 io_in[17] 0.000625813
2 *419:io_in[17] 0.0790316
3 *9:18 0.0790316
4 *9:16 0.0292129
5 *9:15 0.0298387
6 *419:io_in[17] *46:11 0
7 *419:io_in[17] *47:7 0
8 *9:16 *10:8 0.138455
9 *9:16 *16:8 0.0129722
10 *9:16 *46:14 0.0220863
*RES
1 io_in[17] *9:15 10.125 
2 *9:15 *9:16 466.29 
3 *9:16 *9:18 4.5 
4 *9:18 *419:io_in[17] 600.525 
*END

*D_NET *10 0.446333
*CONN
*P io_in[18] I
*I *419:io_in[18] I *D tiny_user_project
*CAP
1 io_in[18] 0.000493321
2 *419:io_in[18] 0.001201
3 *10:11 0.0770781
4 *10:10 0.0758771
5 *10:8 0.00135149
6 *10:7 0.00184481
7 *419:io_in[18] *419:io_in[19] 0.00137924
8 *419:io_in[18] *48:10 0.000820363
9 *419:io_in[18] *92:8 0.0015006
10 *10:8 *46:14 0.138462
11 *10:11 *419:io_in[20] 0
12 *10:11 *11:19 0.00733496
13 *10:11 *87:12 0
14 *1:11 *419:io_in[18] 0.000534893
15 *9:16 *10:8 0.138455
*RES
1 io_in[18] *10:7 8.145 
2 *10:7 *10:8 346.59 
3 *10:8 *10:10 4.5 
4 *10:10 *10:11 594.99 
5 *10:11 *419:io_in[18] 23.535 
*END

*D_NET *11 0.229324
*CONN
*P io_in[19] I
*I *419:io_in[19] I *D tiny_user_project
*CAP
1 io_in[19] 0.000178873
2 *419:io_in[19] 0.000999538
3 *11:19 0.0052427
4 *11:16 0.0345916
5 *11:15 0.0303484
6 *11:13 0.0720144
7 *11:11 0.0721933
8 *419:io_in[19] *49:7 0
9 *419:io_in[19] *86:7 0
10 *419:io_in[19] *92:8 4.72127e-05
11 *11:16 *52:8 0.00347909
12 *11:19 *419:io_in[20] 0
13 *419:io_in[18] *419:io_in[19] 0.00137924
14 *1:11 *419:io_in[19] 0.00151477
15 *10:11 *11:19 0.00733496
*RES
1 io_in[19] *11:11 2.115 
2 *11:11 *11:13 553.77 
3 *11:13 *11:15 4.5 
4 *11:15 *11:16 238.77 
5 *11:16 *11:19 49.23 
6 *11:19 *419:io_in[19] 18.675 
*END

*D_NET *12 0.52515
*CONN
*P io_in[1] I
*I *419:io_in[1] I *D tiny_user_project
*CAP
1 io_in[1] 0.000539637
2 *419:io_in[1] 6.40662e-05
3 *12:11 0.0863663
4 *12:10 0.0863022
5 *12:8 0.000182653
6 *12:7 0.00072229
7 *419:io_in[1] *50:7 0
8 *12:8 *39:11 0.109408
9 *12:8 *77:11 0.109416
10 *12:11 *419:io_in[2] 1.05934e-05
11 *12:11 *29:19 0.00219803
12 *12:11 *66:10 0.000407428
13 *12:11 *67:10 0.000436878
14 *12:11 *108:8 0.128708
15 *12:11 *110:7 0.00038821
16 *12:11 *110:9 0
*RES
1 io_in[1] *12:7 8.325 
2 *12:7 *12:8 278.37 
3 *12:8 *12:10 4.5 
4 *12:10 *12:11 780.39 
5 *12:11 *419:io_in[1] 4.905 
*END

*D_NET *13 0.193502
*CONN
*P io_in[20] I
*I *419:io_in[20] I *D tiny_user_project
*CAP
1 io_in[20] 0.0716771
2 *419:io_in[20] 0.00790815
3 *13:10 0.00790815
4 *13:8 0.0171656
5 *13:7 0.0171656
6 *13:5 0.0716771
7 *419:io_in[20] *51:5 0
8 *10:11 *419:io_in[20] 0
9 *11:19 *419:io_in[20] 0
*RES
1 io_in[20] *13:5 551.025 
2 *13:5 *13:7 4.5 
3 *13:7 *13:8 132.03 
4 *13:8 *13:10 4.5 
5 *13:10 *419:io_in[20] 52.965 
*END

*D_NET *14 0.165485
*CONN
*P io_in[21] I
*I *419:io_in[21] I *D tiny_user_project
*CAP
1 io_in[21] 0.00457823
2 *419:io_in[21] 0.0781643
3 *14:10 0.0827426
4 *419:io_in[21] *17:16 0
5 *419:io_in[21] *52:5 0
6 *419:io_in[21] *89:7 0
*RES
1 io_in[21] *14:10 40.275 
2 *14:10 *419:io_in[21] 592.965 
*END

*D_NET *15 0.19366
*CONN
*P io_in[22] I
*I *419:io_in[22] I *D tiny_user_project
*CAP
1 io_in[22] 0.00485078
2 *419:io_in[22] 0.00288113
3 *15:12 0.0127571
4 *15:11 0.00987594
5 *15:9 0.0714857
6 *15:7 0.0763365
7 *419:io_in[22] *53:10 0
8 *419:io_in[22] *54:11 0
9 *15:12 *47:8 0.00993114
10 *15:12 *61:8 0
11 *15:12 *87:12 0.0055418
12 *15:12 *104:8 0
*RES
1 io_in[22] *15:7 37.305 
2 *15:7 *15:9 549.36 
3 *15:9 *15:11 4.5 
4 *15:11 *15:12 92.25 
5 *15:12 *419:io_in[22] 22.545 
*END

*D_NET *16 0.22035
*CONN
*P io_in[23] I
*I *419:io_in[23] I *D tiny_user_project
*CAP
1 io_in[23] 0.000431381
2 *419:io_in[23] 0.0792017
3 *16:10 0.0792017
4 *16:8 0.0237136
5 *16:7 0.0241449
6 *419:io_in[23] *21:16 0
7 *419:io_in[23] *54:10 0
8 *16:8 *45:14 0.000129771
9 *16:8 *46:14 0.000224902
10 *8:8 *16:8 0.000329405
11 *9:16 *16:8 0.0129722
*RES
1 io_in[23] *16:7 7.785 
2 *16:7 *16:8 203.13 
3 *16:8 *16:10 4.5 
4 *16:10 *419:io_in[23] 600.705 
*END

*D_NET *17 0.249091
*CONN
*P io_in[24] I
*I *419:io_in[24] I *D tiny_user_project
*CAP
1 io_in[24] 0.000201168
2 *419:io_in[24] 0.00292633
3 *17:16 0.0794261
4 *17:15 0.0764997
5 *17:13 0.0441351
6 *17:11 0.0443362
7 *419:io_in[24] *28:19 0.00156593
8 *419:io_in[24] *33:11 0
9 *419:io_in[24] *55:7 0
10 *419:io_in[24] *92:7 0
11 *17:16 *51:5 0
12 *419:io_in[21] *17:16 0
*RES
1 io_in[24] *17:11 1.935 
2 *17:11 *17:13 278.91 
3 *17:13 *17:15 4.5 
4 *17:15 *17:16 582.03 
5 *17:16 *419:io_in[24] 34.155 
*END

*D_NET *18 0.305453
*CONN
*P io_in[25] I
*I *419:io_in[25] I *D tiny_user_project
*CAP
1 io_in[25] 0.00368388
2 *419:io_in[25] 0.0020557
3 *18:19 0.0128231
4 *18:18 0.0107674
5 *18:16 0.0661895
6 *18:15 0.0698734
7 *419:io_in[25] *56:5 0
8 *419:io_in[25] *93:7 0
9 *18:19 *19:11 0.110175
10 *18:19 *36:19 0.0118985
11 *18:19 *49:8 0.0120903
12 *18:19 *103:8 0.00589604
*RES
1 io_in[25] *18:15 28.305 
2 *18:15 *18:16 508.77 
3 *18:16 *18:18 4.5 
4 *18:18 *18:19 279.99 
5 *18:19 *419:io_in[25] 17.325 
*END

*D_NET *19 0.295299
*CONN
*P io_in[26] I
*I *419:io_in[26] I *D tiny_user_project
*CAP
1 io_in[26] 0.0032696
2 *419:io_in[26] 0.00195549
3 *19:11 0.0164077
4 *19:10 0.0144523
5 *19:8 0.0574868
6 *19:7 0.0607565
7 *419:io_in[26] *57:5 0
8 *19:11 *49:8 0.000996427
9 *4:11 *19:11 0.0297989
10 *18:19 *19:11 0.110175
*RES
1 io_in[26] *19:7 29.565 
2 *19:7 *19:8 441.63 
3 *19:8 *19:10 4.5 
4 *19:10 *19:11 282.69 
5 *19:11 *419:io_in[26] 17.145 
*END

*D_NET *20 0.18541
*CONN
*P io_in[27] I
*I *419:io_in[27] I *D tiny_user_project
*CAP
1 io_in[27] 0.00035683
2 *419:io_in[27] 0.0029078
3 *20:16 0.0511104
4 *20:15 0.0482026
5 *20:13 0.0395195
6 *20:11 0.0398763
7 *419:io_in[27] *47:8 0.00052228
8 *419:io_in[27] *58:7 0
9 *419:io_in[27] *98:13 0
10 *419:io_in[27] *104:8 0.00291387
11 *20:16 *56:5 0
12 *20:16 *94:9 0
*RES
1 io_in[27] *20:11 3.015 
2 *20:11 *20:13 305.91 
3 *20:13 *20:15 4.5 
4 *20:15 *20:16 366.93 
5 *20:16 *419:io_in[27] 33.255 
*END

*D_NET *21 0.175012
*CONN
*P io_in[28] I
*I *419:io_in[28] I *D tiny_user_project
*CAP
1 io_in[28] 0.000249598
2 *419:io_in[28] 0.00280462
3 *21:21 0.00484556
4 *21:16 0.0413781
5 *21:15 0.0393371
6 *21:13 0.037359
7 *21:11 0.0376086
8 *419:io_in[28] *59:7 0
9 *21:16 *91:9 0
10 *21:21 *47:8 0.0114289
11 *21:21 *61:8 0
12 *419:io_in[23] *21:16 0
*RES
1 io_in[28] *21:11 2.475 
2 *21:11 *21:13 289.71 
3 *21:13 *21:15 4.5 
4 *21:15 *21:16 298.35 
5 *21:16 *21:21 37.89 
6 *21:21 *419:io_in[28] 18.045 
*END

*D_NET *22 0.15063
*CONN
*P io_in[29] I
*I *419:io_in[29] I *D tiny_user_project
*CAP
1 io_in[29] 0.000177869
2 *419:io_in[29] 0.0332271
3 *22:15 0.0332271
4 *22:13 0.0419099
5 *22:11 0.0420878
6 *419:io_in[29] *60:7 0
7 *419:io_in[29] *97:7 0
*RES
1 io_in[29] *22:11 1.935 
2 *22:11 *22:13 323.91 
3 *22:13 *22:15 4.5 
4 *22:15 *419:io_in[29] 248.805 
*END

*D_NET *23 0.419328
*CONN
*P io_in[2] I
*I *419:io_in[2] I *D tiny_user_project
*CAP
1 io_in[2] 0.000496537
2 *419:io_in[2] 0.000926465
3 *23:11 0.0873918
4 *23:10 0.0864653
5 *23:8 0.000137913
6 *23:7 0.00063445
7 *23:8 *39:11 0.082743
8 *23:8 *50:11 0.082735
9 *23:11 *31:19 0.07559
10 *23:11 *71:9 0.00219661
11 *23:11 *109:9 0
12 *12:11 *419:io_in[2] 1.05934e-05
*RES
1 io_in[2] *23:7 7.965 
2 *23:7 *23:8 210.51 
3 *23:8 *23:10 4.5 
4 *23:10 *23:11 775.53 
5 *23:11 *419:io_in[2] 17.28 
*END

*D_NET *24 0.135378
*CONN
*P io_in[30] I
*I *419:io_in[30] I *D tiny_user_project
*CAP
1 io_in[30] 0.000113196
2 *419:io_in[30] 0.00164646
3 *24:16 0.0248211
4 *24:15 0.0231747
5 *24:13 0.0424007
6 *24:11 0.0425138
7 *419:io_in[30] *33:11 0.000708004
8 *419:io_in[30] *62:8 0
9 *24:16 *60:7 0
*RES
1 io_in[30] *24:11 1.395 
2 *24:11 *24:13 327.51 
3 *24:13 *24:15 4.5 
4 *24:15 *24:16 173.07 
5 *24:16 *419:io_in[30] 19.215 
*END

*D_NET *25 0.118817
*CONN
*P io_in[31] I
*I *419:io_in[31] I *D tiny_user_project
*CAP
1 io_in[31] 0.00181137
2 *419:io_in[31] 0.00139804
3 *25:12 0.0157753
4 *25:11 0.0143773
5 *25:9 0.0414466
6 *25:7 0.0432579
7 *419:io_in[31] *33:11 0.000750025
8 *419:io_in[31] *63:7 0
9 *25:12 *100:10 0
*RES
1 io_in[31] *25:7 13.185 
2 *25:7 *25:9 320.04 
3 *25:9 *25:11 4.5 
4 *25:11 *25:12 105.57 
5 *25:12 *419:io_in[31] 19.215 
*END

*D_NET *26 0.102004
*CONN
*P io_in[32] I
*I *419:io_in[32] I *D tiny_user_project
*CAP
1 io_in[32] 0.000323383
2 *419:io_in[32] 0.00634657
3 *26:13 0.0506786
4 *26:11 0.0446554
5 *419:io_in[32] *36:16 0
6 *419:io_in[32] *64:7 0
7 *3:11 *26:13 0
8 *6:11 *26:13 0
*RES
1 io_in[32] *26:11 3.015 
2 *26:11 *26:13 340.11 
3 *26:13 *419:io_in[32] 48.105 
*END

*D_NET *27 0.192267
*CONN
*P io_in[33] I
*I *419:io_in[33] I *D tiny_user_project
*CAP
1 io_in[33] 0.00319417
2 *419:io_in[33] 0.000924957
3 *27:19 0.0166139
4 *27:18 0.0196489
5 *27:15 0.00715412
6 *419:io_in[33] *102:7 0
7 *27:19 *28:19 0.00524966
8 *27:19 *34:15 0.0597396
9 *27:19 *92:8 0.00837385
10 *27:19 *93:8 0.000915757
11 *1:11 *27:19 0.0704519
*RES
1 io_in[33] *27:15 29.385 
2 *27:15 *27:18 34.47 
3 *27:18 *27:19 323.19 
4 *27:19 *419:io_in[33] 10.485 
*END

*D_NET *28 0.165114
*CONN
*P io_in[34] I
*I *419:io_in[34] I *D tiny_user_project
*CAP
1 io_in[34] 0.000177869
2 *419:io_in[34] 0.000986883
3 *28:19 0.0121869
4 *28:18 0.0112
5 *28:16 0.0128718
6 *28:15 0.0128718
7 *28:13 0.0213071
8 *28:11 0.021485
9 *419:io_in[34] *103:7 0
10 *28:19 *34:15 0.0619163
11 *28:19 *83:12 0.001076
12 *28:19 *98:12 0.00128716
13 *28:19 *112:10 0.000932068
14 *419:io_in[0] *28:16 0
15 *419:io_in[24] *28:19 0.00156593
16 *27:19 *28:19 0.00524966
*RES
1 io_in[34] *28:11 1.935 
2 *28:11 *28:13 165.51 
3 *28:13 *28:15 4.5 
4 *28:15 *28:16 97.83 
5 *28:16 *28:18 4.5 
6 *28:18 *28:19 185.49 
7 *28:19 *419:io_in[34] 10.845 
*END

*D_NET *29 0.231806
*CONN
*P io_in[35] I
*I *419:io_in[35] I *D tiny_user_project
*CAP
1 io_in[35] 0.00585873
2 *419:io_in[35] 0.000146699
3 *29:19 0.0229782
4 *29:18 0.0228315
5 *29:16 0.0207773
6 *29:15 0.026636
7 *419:io_in[35] *104:7 0
8 *29:19 *88:8 0.0671826
9 *29:19 *108:8 0.0631974
10 *12:11 *29:19 0.00219803
*RES
1 io_in[35] *29:15 49.905 
2 *29:15 *29:16 159.75 
3 *29:16 *29:18 4.5 
4 *29:18 *29:19 312.39 
5 *29:19 *419:io_in[35] 5.265 
*END

*D_NET *30 0.300402
*CONN
*P io_in[36] I
*I *419:io_in[36] I *D tiny_user_project
*CAP
1 io_in[36] 0.00355866
2 *419:io_in[36] 0.000448252
3 *30:11 0.00967962
4 *30:10 0.00923137
5 *30:8 0.0289534
6 *30:7 0.0325121
7 *419:io_in[36] *68:8 0
8 *30:11 *31:19 0.13226
9 *30:11 *67:11 0
10 *30:11 *68:9 0.083759
*RES
1 io_in[36] *30:7 32.265 
2 *30:7 *30:8 222.93 
3 *30:8 *30:10 4.5 
4 *30:10 *30:11 333.99 
5 *30:11 *419:io_in[36] 16.65 
*END

*D_NET *31 0.315222
*CONN
*P io_in[37] I
*I *419:io_in[37] I *D tiny_user_project
*CAP
1 io_in[37] 0.00421079
2 *419:io_in[37] 0.000451209
3 *31:19 0.0110079
4 *31:18 0.0105567
5 *31:16 0.0380648
6 *31:15 0.0422756
7 *419:io_in[37] *69:11 0
8 *31:19 *68:9 0.000342686
9 *31:19 *71:9 0.000462557
10 *23:11 *31:19 0.07559
11 *30:11 *31:19 0.13226
*RES
1 io_in[37] *31:15 38.025 
2 *31:15 *31:16 293.13 
3 *31:16 *31:18 4.5 
4 *31:18 *31:19 336.69 
5 *31:19 *419:io_in[37] 16.83 
*END

*D_NET *32 0.36333
*CONN
*P io_in[3] I
*I *419:io_in[3] I *D tiny_user_project
*CAP
1 io_in[3] 0.000341619
2 *419:io_in[3] 0.00240992
3 *32:11 0.0876072
4 *32:10 0.0851973
5 *32:8 0.00444638
6 *32:7 0.004788
7 *419:io_in[3] *70:7 0