*SPEF "ieee 1481-1999"
*DESIGN "user_project_wrapper"
*DATE "11:11:11 Fri 11 11, 1111"
*VENDOR "OpenRCX"
*PROGRAM "Parallel Extraction"
*VERSION "1.0"
*DESIGN_FLOW "NAME_SCOPE LOCAL" "PIN_CAP NONE"
*DIVIDER /
*DELIMITER :
*BUS_DELIMITER []
*T_UNIT 1 NS
*C_UNIT 1 PF
*R_UNIT 1 OHM
*L_UNIT 1 HENRY

*NAME_MAP
*1 io_in[0]
*2 io_in[10]
*3 io_in[11]
*4 io_in[12]
*5 io_in[13]
*6 io_in[14]
*7 io_in[15]
*8 io_in[16]
*9 io_in[17]
*10 io_in[18]
*11 io_in[19]
*12 io_in[1]
*13 io_in[20]
*14 io_in[21]
*15 io_in[22]
*16 io_in[23]
*17 io_in[24]
*18 io_in[25]
*19 io_in[26]
*20 io_in[27]
*21 io_in[28]
*22 io_in[29]
*23 io_in[2]
*24 io_in[30]
*25 io_in[31]
*26 io_in[32]
*27 io_in[33]
*28 io_in[34]
*29 io_in[35]
*30 io_in[36]
*31 io_in[37]
*32 io_in[3]
*33 io_in[4]
*34 io_in[5]
*35 io_in[6]
*36 io_in[7]
*37 io_in[8]
*38 io_in[9]
*39 io_oeb[0]
*40 io_oeb[10]
*41 io_oeb[11]
*42 io_oeb[12]
*43 io_oeb[13]
*44 io_oeb[14]
*45 io_oeb[15]
*46 io_oeb[16]
*47 io_oeb[17]
*48 io_oeb[18]
*49 io_oeb[19]
*50 io_oeb[1]
*51 io_oeb[20]
*52 io_oeb[21]
*53 io_oeb[22]
*54 io_oeb[23]
*55 io_oeb[24]
*56 io_oeb[25]
*57 io_oeb[26]
*58 io_oeb[27]
*59 io_oeb[28]
*60 io_oeb[29]
*61 io_oeb[2]
*62 io_oeb[30]
*63 io_oeb[31]
*64 io_oeb[32]
*65 io_oeb[33]
*66 io_oeb[34]
*67 io_oeb[35]
*68 io_oeb[36]
*69 io_oeb[37]
*70 io_oeb[3]
*71 io_oeb[4]
*72 io_oeb[5]
*73 io_oeb[6]
*74 io_oeb[7]
*75 io_oeb[8]
*76 io_oeb[9]
*77 io_out[0]
*78 io_out[10]
*79 io_out[11]
*80 io_out[12]
*81 io_out[13]
*82 io_out[14]
*83 io_out[15]
*84 io_out[16]
*85 io_out[17]
*86 io_out[18]
*87 io_out[19]
*88 io_out[1]
*89 io_out[20]
*90 io_out[21]
*91 io_out[22]
*92 io_out[23]
*93 io_out[24]
*94 io_out[25]
*95 io_out[26]
*96 io_out[27]
*97 io_out[28]
*98 io_out[29]
*99 io_out[2]
*100 io_out[30]
*101 io_out[31]
*102 io_out[32]
*103 io_out[33]
*104 io_out[34]
*105 io_out[35]
*106 io_out[36]
*107 io_out[37]
*108 io_out[3]
*109 io_out[4]
*110 io_out[5]
*111 io_out[6]
*112 io_out[7]
*113 io_out[8]
*114 io_out[9]
*115 la_data_in[0]
*116 la_data_in[10]
*117 la_data_in[11]
*118 la_data_in[12]
*119 la_data_in[13]
*120 la_data_in[14]
*121 la_data_in[15]
*122 la_data_in[16]
*123 la_data_in[17]
*124 la_data_in[18]
*125 la_data_in[19]
*126 la_data_in[1]
*127 la_data_in[20]
*128 la_data_in[21]
*129 la_data_in[22]
*130 la_data_in[23]
*131 la_data_in[24]
*132 la_data_in[25]
*133 la_data_in[26]
*134 la_data_in[27]
*135 la_data_in[28]
*136 la_data_in[29]
*137 la_data_in[2]
*138 la_data_in[30]
*139 la_data_in[31]
*140 la_data_in[32]
*141 la_data_in[33]
*142 la_data_in[34]
*143 la_data_in[35]
*144 la_data_in[36]
*145 la_data_in[37]
*146 la_data_in[38]
*147 la_data_in[39]
*148 la_data_in[3]
*149 la_data_in[40]
*150 la_data_in[41]
*151 la_data_in[42]
*152 la_data_in[43]
*153 la_data_in[44]
*154 la_data_in[45]
*155 la_data_in[46]
*156 la_data_in[47]
*157 la_data_in[48]
*158 la_data_in[49]
*159 la_data_in[4]
*160 la_data_in[50]
*161 la_data_in[51]
*162 la_data_in[52]
*163 la_data_in[53]
*164 la_data_in[54]
*165 la_data_in[55]
*166 la_data_in[56]
*167 la_data_in[57]
*168 la_data_in[58]
*169 la_data_in[59]
*170 la_data_in[5]
*171 la_data_in[60]
*172 la_data_in[61]
*173 la_data_in[62]
*174 la_data_in[63]
*175 la_data_in[6]
*176 la_data_in[7]
*177 la_data_in[8]
*178 la_data_in[9]
*179 la_data_out[0]
*180 la_data_out[10]
*181 la_data_out[11]
*182 la_data_out[12]
*183 la_data_out[13]
*184 la_data_out[14]
*185 la_data_out[15]
*186 la_data_out[16]
*187 la_data_out[17]
*188 la_data_out[18]
*189 la_data_out[19]
*190 la_data_out[1]
*191 la_data_out[20]
*192 la_data_out[21]
*193 la_data_out[22]
*194 la_data_out[23]
*195 la_data_out[24]
*196 la_data_out[25]
*197 la_data_out[26]
*198 la_data_out[27]
*199 la_data_out[28]
*200 la_data_out[29]
*201 la_data_out[2]
*202 la_data_out[30]
*203 la_data_out[31]
*204 la_data_out[32]
*205 la_data_out[33]
*206 la_data_out[34]
*207 la_data_out[35]
*208 la_data_out[36]
*209 la_data_out[37]
*210 la_data_out[38]
*211 la_data_out[39]
*212 la_data_out[3]
*213 la_data_out[40]
*214 la_data_out[41]
*215 la_data_out[42]
*216 la_data_out[43]
*217 la_data_out[44]
*218 la_data_out[45]
*219 la_data_out[46]
*220 la_data_out[47]
*221 la_data_out[48]
*222 la_data_out[49]
*223 la_data_out[4]
*224 la_data_out[50]
*225 la_data_out[51]
*226 la_data_out[52]
*227 la_data_out[53]
*228 la_data_out[54]
*229 la_data_out[55]
*230 la_data_out[56]
*231 la_data_out[57]
*232 la_data_out[58]
*233 la_data_out[59]
*234 la_data_out[5]
*235 la_data_out[60]
*236 la_data_out[61]
*237 la_data_out[62]
*238 la_data_out[63]
*239 la_data_out[6]
*240 la_data_out[7]
*241 la_data_out[8]
*242 la_data_out[9]
*243 la_oenb[0]
*244 la_oenb[10]
*245 la_oenb[11]
*246 la_oenb[12]
*247 la_oenb[13]
*248 la_oenb[14]
*249 la_oenb[15]
*250 la_oenb[16]
*251 la_oenb[17]
*252 la_oenb[18]
*253 la_oenb[19]
*254 la_oenb[1]
*255 la_oenb[20]
*256 la_oenb[21]
*257 la_oenb[22]
*258 la_oenb[23]
*259 la_oenb[24]
*260 la_oenb[25]
*261 la_oenb[26]
*262 la_oenb[27]
*263 la_oenb[28]
*264 la_oenb[29]
*265 la_oenb[2]
*266 la_oenb[30]
*267 la_oenb[31]
*268 la_oenb[32]
*269 la_oenb[33]
*270 la_oenb[34]
*271 la_oenb[35]
*272 la_oenb[36]
*273 la_oenb[37]
*274 la_oenb[38]
*275 la_oenb[39]
*276 la_oenb[3]
*277 la_oenb[40]
*278 la_oenb[41]
*279 la_oenb[42]
*280 la_oenb[43]
*281 la_oenb[44]
*282 la_oenb[45]
*283 la_oenb[46]
*284 la_oenb[47]
*285 la_oenb[48]
*286 la_oenb[49]
*287 la_oenb[4]
*288 la_oenb[50]
*289 la_oenb[51]
*290 la_oenb[52]
*291 la_oenb[53]
*292 la_oenb[54]
*293 la_oenb[55]
*294 la_oenb[56]
*295 la_oenb[57]
*296 la_oenb[58]
*297 la_oenb[59]
*298 la_oenb[5]
*299 la_oenb[60]
*300 la_oenb[61]
*301 la_oenb[62]
*302 la_oenb[63]
*303 la_oenb[6]
*304 la_oenb[7]
*305 la_oenb[8]
*306 la_oenb[9]
*307 user_clock2
*308 user_irq[0]
*309 user_irq[1]
*310 user_irq[2]
*313 wb_clk_i
*314 wb_rst_i
*315 wbs_ack_o
*316 wbs_adr_i[0]
*317 wbs_adr_i[10]
*318 wbs_adr_i[11]
*319 wbs_adr_i[12]
*320 wbs_adr_i[13]
*321 wbs_adr_i[14]
*322 wbs_adr_i[15]
*323 wbs_adr_i[16]
*324 wbs_adr_i[17]
*325 wbs_adr_i[18]
*326 wbs_adr_i[19]
*327 wbs_adr_i[1]
*328 wbs_adr_i[20]
*329 wbs_adr_i[21]
*330 wbs_adr_i[22]
*331 wbs_adr_i[23]
*332 wbs_adr_i[24]
*333 wbs_adr_i[25]
*334 wbs_adr_i[26]
*335 wbs_adr_i[27]
*336 wbs_adr_i[28]
*337 wbs_adr_i[29]
*338 wbs_adr_i[2]
*339 wbs_adr_i[30]
*340 wbs_adr_i[31]
*341 wbs_adr_i[3]
*342 wbs_adr_i[4]
*343 wbs_adr_i[5]
*344 wbs_adr_i[6]
*345 wbs_adr_i[7]
*346 wbs_adr_i[8]
*347 wbs_adr_i[9]
*348 wbs_cyc_i
*349 wbs_dat_i[0]
*350 wbs_dat_i[10]
*351 wbs_dat_i[11]
*352 wbs_dat_i[12]
*353 wbs_dat_i[13]
*354 wbs_dat_i[14]
*355 wbs_dat_i[15]
*356 wbs_dat_i[16]
*357 wbs_dat_i[17]
*358 wbs_dat_i[18]
*359 wbs_dat_i[19]
*360 wbs_dat_i[1]
*361 wbs_dat_i[20]
*362 wbs_dat_i[21]
*363 wbs_dat_i[22]
*364 wbs_dat_i[23]
*365 wbs_dat_i[24]
*366 wbs_dat_i[25]
*367 wbs_dat_i[26]
*368 wbs_dat_i[27]
*369 wbs_dat_i[28]
*370 wbs_dat_i[29]
*371 wbs_dat_i[2]
*372 wbs_dat_i[30]
*373 wbs_dat_i[31]
*374 wbs_dat_i[3]
*375 wbs_dat_i[4]
*376 wbs_dat_i[5]
*377 wbs_dat_i[6]
*378 wbs_dat_i[7]
*379 wbs_dat_i[8]
*380 wbs_dat_i[9]
*381 wbs_dat_o[0]
*382 wbs_dat_o[10]
*383 wbs_dat_o[11]
*384 wbs_dat_o[12]
*385 wbs_dat_o[13]
*386 wbs_dat_o[14]
*387 wbs_dat_o[15]
*388 wbs_dat_o[16]
*389 wbs_dat_o[17]
*390 wbs_dat_o[18]
*391 wbs_dat_o[19]
*392 wbs_dat_o[1]
*393 wbs_dat_o[20]
*394 wbs_dat_o[21]
*395 wbs_dat_o[22]
*396 wbs_dat_o[23]
*397 wbs_dat_o[24]
*398 wbs_dat_o[25]
*399 wbs_dat_o[26]
*400 wbs_dat_o[27]
*401 wbs_dat_o[28]
*402 wbs_dat_o[29]
*403 wbs_dat_o[2]
*404 wbs_dat_o[30]
*405 wbs_dat_o[31]
*406 wbs_dat_o[3]
*407 wbs_dat_o[4]
*408 wbs_dat_o[5]
*409 wbs_dat_o[6]
*410 wbs_dat_o[7]
*411 wbs_dat_o[8]
*412 wbs_dat_o[9]
*413 wbs_sel_i[0]
*414 wbs_sel_i[1]
*415 wbs_sel_i[2]
*416 wbs_sel_i[3]
*417 wbs_stb_i
*418 wbs_we_i
*419 _00_
*420 _01_
*421 _02_
*422 _03_
*423 _04_
*424 _05_
*425 _06_
*426 _07_
*427 _08_
*428 _09_
*429 _10_
*430 _11_
*431 _12_
*432 _13_
*433 _14_
*434 _15_
*435 _16_
*436 _17_
*437 u_serv_0
*438 u_serv_1
*439 u_serv_2

*PORTS
io_in[0] I
io_in[10] I
io_in[11] I
io_in[12] I
io_in[13] I
io_in[14] I
io_in[15] I
io_in[16] I
io_in[17] I
io_in[18] I
io_in[19] I
io_in[1] I
io_in[20] I
io_in[21] I
io_in[22] I
io_in[23] I
io_in[24] I
io_in[25] I
io_in[26] I
io_in[27] I
io_in[28] I
io_in[29] I
io_in[2] I
io_in[30] I
io_in[31] I
io_in[32] I
io_in[33] I
io_in[34] I
io_in[35] I
io_in[36] I
io_in[37] I
io_in[3] I
io_in[4] I
io_in[5] I
io_in[6] I
io_in[7] I
io_in[8] I
io_in[9] I
io_oeb[0] O
io_oeb[10] O
io_oeb[11] O
io_oeb[12] O
io_oeb[13] O
io_oeb[14] O
io_oeb[15] O
io_oeb[16] O
io_oeb[17] O
io_oeb[18] O
io_oeb[19] O
io_oeb[1] O
io_oeb[20] O
io_oeb[21] O
io_oeb[22] O
io_oeb[23] O
io_oeb[24] O
io_oeb[25] O
io_oeb[26] O
io_oeb[27] O
io_oeb[28] O
io_oeb[29] O
io_oeb[2] O
io_oeb[30] O
io_oeb[31] O
io_oeb[32] O
io_oeb[33] O
io_oeb[34] O
io_oeb[35] O
io_oeb[36] O
io_oeb[37] O
io_oeb[3] O
io_oeb[4] O
io_oeb[5] O
io_oeb[6] O
io_oeb[7] O
io_oeb[8] O
io_oeb[9] O
io_out[0] O
io_out[10] O
io_out[11] O
io_out[12] O
io_out[13] O
io_out[14] O
io_out[15] O
io_out[16] O
io_out[17] O
io_out[18] O
io_out[19] O
io_out[1] O
io_out[20] O
io_out[21] O
io_out[22] O
io_out[23] O
io_out[24] O
io_out[25] O
io_out[26] O
io_out[27] O
io_out[28] O
io_out[29] O
io_out[2] O
io_out[30] O
io_out[31] O
io_out[32] O
io_out[33] O
io_out[34] O
io_out[35] O
io_out[36] O
io_out[37] O
io_out[3] O
io_out[4] O
io_out[5] O
io_out[6] O
io_out[7] O
io_out[8] O
io_out[9] O
la_data_in[0] I
la_data_in[10] I
la_data_in[11] I
la_data_in[12] I
la_data_in[13] I
la_data_in[14] I
la_data_in[15] I
la_data_in[16] I
la_data_in[17] I
la_data_in[18] I
la_data_in[19] I
la_data_in[1] I
la_data_in[20] I
la_data_in[21] I
la_data_in[22] I
la_data_in[23] I
la_data_in[24] I
la_data_in[25] I
la_data_in[26] I
la_data_in[27] I
la_data_in[28] I
la_data_in[29] I
la_data_in[2] I
la_data_in[30] I
la_data_in[31] I
la_data_in[32] I
la_data_in[33] I
la_data_in[34] I
la_data_in[35] I
la_data_in[36] I
la_data_in[37] I
la_data_in[38] I
la_data_in[39] I
la_data_in[3] I
la_data_in[40] I
la_data_in[41] I
la_data_in[42] I
la_data_in[43] I
la_data_in[44] I
la_data_in[45] I
la_data_in[46] I
la_data_in[47] I
la_data_in[48] I
la_data_in[49] I
la_data_in[4] I
la_data_in[50] I
la_data_in[51] I
la_data_in[52] I
la_data_in[53] I
la_data_in[54] I
la_data_in[55] I
la_data_in[56] I
la_data_in[57] I
la_data_in[58] I
la_data_in[59] I
la_data_in[5] I
la_data_in[60] I
la_data_in[61] I
la_data_in[62] I
la_data_in[63] I
la_data_in[6] I
la_data_in[7] I
la_data_in[8] I
la_data_in[9] I
la_data_out[0] O
la_data_out[10] O
la_data_out[11] O
la_data_out[12] O
la_data_out[13] O
la_data_out[14] O
la_data_out[15] O
la_data_out[16] O
la_data_out[17] O
la_data_out[18] O
la_data_out[19] O
la_data_out[1] O
la_data_out[20] O
la_data_out[21] O
la_data_out[22] O
la_data_out[23] O
la_data_out[24] O
la_data_out[25] O
la_data_out[26] O
la_data_out[27] O
la_data_out[28] O
la_data_out[29] O
la_data_out[2] O
la_data_out[30] O
la_data_out[31] O
la_data_out[32] O
la_data_out[33] O
la_data_out[34] O
la_data_out[35] O
la_data_out[36] O
la_data_out[37] O
la_data_out[38] O
la_data_out[39] O
la_data_out[3] O
la_data_out[40] O
la_data_out[41] O
la_data_out[42] O
la_data_out[43] O
la_data_out[44] O
la_data_out[45] O
la_data_out[46] O
la_data_out[47] O
la_data_out[48] O
la_data_out[49] O
la_data_out[4] O
la_data_out[50] O
la_data_out[51] O
la_data_out[52] O
la_data_out[53] O
la_data_out[54] O
la_data_out[55] O
la_data_out[56] O
la_data_out[57] O
la_data_out[58] O
la_data_out[59] O
la_data_out[5] O
la_data_out[60] O
la_data_out[61] O
la_data_out[62] O
la_data_out[63] O
la_data_out[6] O
la_data_out[7] O
la_data_out[8] O
la_data_out[9] O
la_oenb[0] I
la_oenb[10] I
la_oenb[11] I
la_oenb[12] I
la_oenb[13] I
la_oenb[14] I
la_oenb[15] I
la_oenb[16] I
la_oenb[17] I
la_oenb[18] I
la_oenb[19] I
la_oenb[1] I
la_oenb[20] I
la_oenb[21] I
la_oenb[22] I
la_oenb[23] I
la_oenb[24] I
la_oenb[25] I
la_oenb[26] I
la_oenb[27] I
la_oenb[28] I
la_oenb[29] I
la_oenb[2] I
la_oenb[30] I
la_oenb[31] I
la_oenb[32] I
la_oenb[33] I
la_oenb[34] I
la_oenb[35] I
la_oenb[36] I
la_oenb[37] I
la_oenb[38] I
la_oenb[39] I
la_oenb[3] I
la_oenb[40] I
la_oenb[41] I
la_oenb[42] I
la_oenb[43] I
la_oenb[44] I
la_oenb[45] I
la_oenb[46] I
la_oenb[47] I
la_oenb[48] I
la_oenb[49] I
la_oenb[4] I
la_oenb[50] I
la_oenb[51] I
la_oenb[52] I
la_oenb[53] I
la_oenb[54] I
la_oenb[55] I
la_oenb[56] I
la_oenb[57] I
la_oenb[58] I
la_oenb[59] I
la_oenb[5] I
la_oenb[60] I
la_oenb[61] I
la_oenb[62] I
la_oenb[63] I
la_oenb[6] I
la_oenb[7] I
la_oenb[8] I
la_oenb[9] I
user_clock2 I
user_irq[0] O
user_irq[1] O
user_irq[2] O
wb_clk_i I
wb_rst_i I
wbs_ack_o O
wbs_adr_i[0] I
wbs_adr_i[10] I
wbs_adr_i[11] I
wbs_adr_i[12] I
wbs_adr_i[13] I
wbs_adr_i[14] I
wbs_adr_i[15] I
wbs_adr_i[16] I
wbs_adr_i[17] I
wbs_adr_i[18] I
wbs_adr_i[19] I
wbs_adr_i[1] I
wbs_adr_i[20] I
wbs_adr_i[21] I
wbs_adr_i[22] I
wbs_adr_i[23] I
wbs_adr_i[24] I
wbs_adr_i[25] I
wbs_adr_i[26] I
wbs_adr_i[27] I
wbs_adr_i[28] I
wbs_adr_i[29] I
wbs_adr_i[2] I
wbs_adr_i[30] I
wbs_adr_i[31] I
wbs_adr_i[3] I
wbs_adr_i[4] I
wbs_adr_i[5] I
wbs_adr_i[6] I
wbs_adr_i[7] I
wbs_adr_i[8] I
wbs_adr_i[9] I
wbs_cyc_i I
wbs_dat_i[0] I
wbs_dat_i[10] I
wbs_dat_i[11] I
wbs_dat_i[12] I
wbs_dat_i[13] I
wbs_dat_i[14] I
wbs_dat_i[15] I
wbs_dat_i[16] I
wbs_dat_i[17] I
wbs_dat_i[18] I
wbs_dat_i[19] I
wbs_dat_i[1] I
wbs_dat_i[20] I
wbs_dat_i[21] I
wbs_dat_i[22] I
wbs_dat_i[23] I
wbs_dat_i[24] I
wbs_dat_i[25] I
wbs_dat_i[26] I
wbs_dat_i[27] I
wbs_dat_i[28] I
wbs_dat_i[29] I
wbs_dat_i[2] I
wbs_dat_i[30] I
wbs_dat_i[31] I
wbs_dat_i[3] I
wbs_dat_i[4] I
wbs_dat_i[5] I
wbs_dat_i[6] I
wbs_dat_i[7] I
wbs_dat_i[8] I
wbs_dat_i[9] I
wbs_dat_o[0] O
wbs_dat_o[10] O
wbs_dat_o[11] O
wbs_dat_o[12] O
wbs_dat_o[13] O
wbs_dat_o[14] O
wbs_dat_o[15] O
wbs_dat_o[16] O
wbs_dat_o[17] O
wbs_dat_o[18] O
wbs_dat_o[19] O
wbs_dat_o[1] O
wbs_dat_o[20] O
wbs_dat_o[21] O
wbs_dat_o[22] O
wbs_dat_o[23] O
wbs_dat_o[24] O
wbs_dat_o[25] O
wbs_dat_o[26] O
wbs_dat_o[27] O
wbs_dat_o[28] O
wbs_dat_o[29] O
wbs_dat_o[2] O
wbs_dat_o[30] O
wbs_dat_o[31] O
wbs_dat_o[3] O
wbs_dat_o[4] O
wbs_dat_o[5] O
wbs_dat_o[6] O
wbs_dat_o[7] O
wbs_dat_o[8] O
wbs_dat_o[9] O
wbs_sel_i[0] I
wbs_sel_i[1] I
wbs_sel_i[2] I
wbs_sel_i[3] I
wbs_stb_i I
wbs_we_i I

*D_NET *4 0.217045
*CONN
*P io_in[12] I
*I *438:io_in[0] I *D serv_1
*CAP
1 io_in[12] 0.00100991
2 *438:io_in[0] 0.000113178
3 *4:11 0.0597069
4 *4:10 0.0595937
5 *4:8 0.0478059
6 *4:7 0.0488158
*RES
1 io_in[12] *4:7 12.825 
2 *4:7 *4:8 368.37 
3 *4:8 *4:10 4.5 
4 *4:10 *4:11 467.19 
5 *4:11 *438:io_in[0] 0.945 
*END

*D_NET *5 0.249524
*CONN
*P io_in[13] I
*I *438:io_in[1] I *D serv_1
*CAP
1 io_in[13] 0.0192843
2 *438:io_in[1] 0.000672213
3 *5:11 0.0511498
4 *5:10 0.0504776
5 *5:8 0.0543277
6 *5:7 0.0543277
7 *5:5 0.0192843
*RES
1 io_in[13] *5:5 151.425 
2 *5:5 *5:7 4.5 
3 *5:7 *5:8 418.59 
4 *5:8 *5:10 4.5 
5 *5:10 *5:11 320.04 
6 *5:11 *438:io_in[1] 4.365 
*END

*D_NET *6 0.24433
*CONN
*P io_in[14] I
*I *438:io_in[2] I *D serv_1
*CAP
1 io_in[14] 0.000264341
2 *438:io_in[2] 0.000782455
3 *6:19 0.0419886
4 *6:18 0.0412062
5 *6:16 0.0609627
6 *6:15 0.0609627
7 *6:13 0.0189491
8 *6:11 0.0192135
*RES
1 io_in[14] *6:11 2.655 
2 *6:11 *6:13 148.77 
3 *6:13 *6:15 4.5 
4 *6:15 *6:16 469.89 
5 *6:16 *6:18 4.5 
6 *6:18 *6:19 322.74 
7 *6:19 *438:io_in[2] 6.435 
*END

*D_NET *7 0.250112
*CONN
*P io_in[15] I
*I *438:io_in[3] I *D serv_1
*CAP
1 io_in[15] 0.0663601
2 *438:io_in[3] 0.000696224
3 *7:8 0.0586957
4 *7:7 0.0579995
5 *7:5 0.0663601
*RES
1 io_in[15] *7:5 511.785 
2 *7:5 *7:7 4.5 
3 *7:7 *7:8 453.78 
4 *7:8 *438:io_in[3] 5.715 
*END

*D_NET *8 0.219225
*CONN
*P io_in[16] I
*I *438:io_in[4] I *D serv_1
*CAP
1 io_in[16] 0.000247817
2 *438:io_in[4] 9.16202e-05
3 *8:16 0.0447657
4 *8:15 0.0446741
5 *8:13 0.064599
6 *8:11 0.0648468
*RES
1 io_in[16] *8:11 2.655 
2 *8:11 *8:13 498.33 
3 *8:13 *8:15 4.5 
4 *8:15 *8:16 349.83 
5 *8:16 *438:io_in[4] 0.765 
*END

*D_NET *11 0.0890122
*CONN
*P io_in[19] I
*I *439:io_in[0] I *D serv_2
*CAP
1 io_in[19] 0.000178873
2 *439:io_in[0] 0.00425238
3 *11:13 0.0443272
4 *11:11 0.0402537
5 *11:13 *41:8 0
*RES
1 io_in[19] *11:11 2.115 
2 *11:11 *11:13 309.33 
3 *11:13 *439:io_in[0] 37.575 
*END

*D_NET *13 0.157268
*CONN
*P io_in[20] I
*I *439:io_in[1] I *D serv_2
*CAP
1 io_in[20] 0.00105188
2 *439:io_in[1] 0.000514095
3 *13:17 0.0135761
4 *13:16 0.0135409
5 *13:11 0.0151151
6 *13:10 0.0146362
7 *13:8 0.00493016
8 *13:7 0.00598204
9 *13:8 *14:8 0.0294654
10 *13:11 *14:11 0
11 *13:16 *15:12 0.000139292
12 *13:16 *55:11 0
13 *13:17 *15:15 0.058135
14 *13:17 *55:8 0.000182063
*RES
1 io_in[20] *13:7 12.645 
2 *13:7 *13:8 73.89 
3 *13:8 *13:10 4.5 
4 *13:10 *13:11 112.41 
5 *13:11 *13:16 13.23 
6 *13:16 *13:17 174.51 
7 *13:17 *439:io_in[1] 8.685 
*END

*D_NET *14 0.175918
*CONN
*P io_in[21] I
*I *439:io_in[2] I *D serv_2
*CAP
1 io_in[21] 0.00107486
2 *439:io_in[2] 0.00019073
3 *14:11 0.0271207
4 *14:10 0.02693
5 *14:8 0.0185277
6 *14:7 0.0196026
7 *14:11 *16:19 0.0530065
8 *13:8 *14:8 0.0294654
9 *13:11 *14:11 0
*RES
1 io_in[21] *14:7 12.825 
2 *14:7 *14:8 181.71 
3 *14:8 *14:10 4.5 
4 *14:10 *14:11 273.87 
5 *14:11 *439:io_in[2] 5.985 
*END

*D_NET *15 0.278222
*CONN
*P io_in[22] I
*I *439:io_in[3] I *D serv_2
*CAP
1 io_in[22] 0.00482212
2 *439:io_in[3] 0.000569982
3 *15:15 0.00643352
4 *15:14 0.00586354
5 *15:12 0.0176512
6 *15:11 0.0176512
7 *15:9 0.0110375
8 *15:7 0.0158596
9 *15:12 *16:16 0.117094
10 *15:15 *55:8 0.022966
11 *13:16 *15:12 0.000139292
12 *13:17 *15:15 0.058135
*RES
1 io_in[22] *15:7 37.305 
2 *15:7 *15:9 84.96 
3 *15:9 *15:11 4.5 
4 *15:11 *15:12 291.87 
5 *15:12 *15:14 4.5 
6 *15:14 *15:15 147.87 
7 *15:15 *439:io_in[3] 8.865 
*END

*D_NET *16 0.295308
*CONN
*P io_in[23] I
*I *439:io_in[4] I *D serv_2
*CAP
1 io_in[23] 0.000345489
2 *439:io_in[4] 0.000277199
3 *16:19 0.00623707
4 *16:18 0.00595987
5 *16:16 0.02476
6 *16:15 0.02476
7 *16:13 0.0158033
8 *16:11 0.0161488
9 *16:16 *56:11 0.0134761
10 *16:19 *56:10 0.0174405
11 *14:11 *16:19 0.0530065
12 *15:12 *16:16 0.117094
*RES
1 io_in[23] *16:11 3.195 
2 *16:11 *16:13 121.77 
3 *16:13 *16:15 4.5 
4 *16:15 *16:16 397.17 
5 *16:16 *16:18 4.5 
6 *16:18 *16:19 134.91 
7 *16:19 *439:io_in[4] 6.165 
*END

*D_NET *34 0.187646
*CONN
*P io_in[5] I
*I *437:io_in[0] I *D serv_0
*CAP
1 io_in[5] 0.00100991
2 *437:io_in[0] 0.0717811
3 *34:10 0.0717811
4 *34:8 0.0210322
5 *34:7 0.0220421
*RES
1 io_in[5] *34:7 12.825 
2 *34:7 *34:8 162.45 
3 *34:8 *34:10 4.5 
4 *34:10 *437:io_in[0] 563.445 
*END

*D_NET *35 0.210026
*CONN
*P io_in[6] I
*I *437:io_in[1] I *D serv_0
*CAP
1 io_in[6] 0.000370905
2 *437:io_in[1] 0.0237262
3 *35:18 0.0237262
4 *35:16 0.0273415
5 *35:15 0.0273415
6 *35:13 0.0535743
7 *35:11 0.0539452
*RES
1 io_in[6] *35:11 3.195 
2 *35:11 *35:13 421.47 
3 *35:13 *35:15 4.5 
4 *35:15 *35:16 211.23 
5 *35:16 *35:18 4.5 
6 *35:18 *437:io_in[1] 150.345 
*END

*D_NET *36 0.214692
*CONN
*P io_in[7] I
*I *437:io_in[2] I *D serv_0
*CAP
1 io_in[7] 0.000167227
2 *437:io_in[2] 0.0126545
3 *36:18 0.0126545
4 *36:16 0.0342259
5 *36:15 0.0342259
6 *36:13 0.0602984
7 *36:11 0.0604657
*RES
1 io_in[7] *36:11 2.115 
2 *36:11 *36:13 472.77 
3 *36:13 *36:15 4.5 
4 *36:15 *36:16 263.25 
5 *36:16 *36:18 4.5 
6 *36:18 *437:io_in[2] 99.045 
*END

*D_NET *37 0.228055
*CONN
*P io_in[8] I
*I *437:io_in[3] I *D serv_0
*CAP
1 io_in[8] 0.060019
2 *437:io_in[3] 0.012995
3 *37:10 0.012995
4 *37:8 0.0410137
5 *37:7 0.0410137
6 *37:5 0.060019
*RES
1 io_in[8] *37:5 470.025 
2 *37:5 *37:7 4.5 
3 *37:7 *37:8 315.27 
4 *37:8 *37:10 4.5 
5 *37:10 *437:io_in[3] 101.745 
*END

*D_NET *38 0.247707
*CONN
*P io_in[9] I
*I *437:io_in[4] I *D serv_0
*CAP
1 io_in[9] 0.000251703
2 *437:io_in[4] 0.0164755
3 *38:18 0.0164755
4 *38:16 0.047408
5 *38:15 0.047408
6 *38:13 0.0597182
7 *38:11 0.0599699
*RES
1 io_in[9] *38:11 2.655 
2 *38:11 *38:13 467.37 
3 *38:13 *38:15 4.5 
4 *38:15 *38:16 364.59 
5 *38:16 *38:18 4.5 
6 *38:18 *437:io_in[4] 104.445 
*END

*D_NET *40 0.255497
*CONN
*P io_oeb[10] O
*I *437:io_oeb[0] O *D serv_0
*CAP
1 io_oeb[10] 0.0593723
2 *437:io_oeb[0] 0.0169005
3 *40:10 0.0593723
4 *40:8 0.0514757
5 *40:7 0.0514757
6 *40:5 0.0169005
*RES
1 *437:io_oeb[0] *40:5 107.145 
2 *40:5 *40:7 4.5 
3 *40:7 *40:8 395.91 
4 *40:8 *40:10 4.5 
5 *40:10 io_oeb[10] 464.625 
*END

*D_NET *41 0.262278
*CONN
*P io_oeb[11] O
*I *437:io_oeb[1] O *D serv_0
*CAP
1 io_oeb[11] 0.000210342
2 *437:io_oeb[1] 0.0162114
3 *41:11 0.0570699
4 *41:10 0.0568595
5 *41:8 0.0578575
6 *41:7 0.0578575
7 *41:5 0.0162114
8 *11:13 *41:8 0
*RES
1 *437:io_oeb[1] *41:5 126.045 
2 *41:5 *41:7 4.5 
3 *41:7 *41:8 445.23 
4 *41:8 *41:10 4.5 
5 *41:10 *41:11 445.77 
6 *41:11 io_oeb[11] 2.475 
*END

*D_NET *47 0.154167
*CONN
*P io_oeb[17] O
*I *438:io_oeb[0] O *D serv_1
*CAP
1 io_oeb[17] 0.0535667
2 *438:io_oeb[0] 0.00172653
3 *47:13 0.0535667
4 *47:11 0.0217903
5 *47:10 0.0235169
*RES
1 *438:io_oeb[0] *47:10 21.195 
2 *47:10 *47:11 169.83 
3 *47:11 *47:13 4.5 
4 *47:13 io_oeb[17] 413.325 
*END

*D_NET *48 0.123295
*CONN
*P io_oeb[18] O
*I *438:io_oeb[1] O *D serv_1
*CAP
1 io_oeb[18] 0.000224836
2 *438:io_oeb[1] 0.00456449
3 *48:14 0.0492508
4 *48:13 0.049026
5 *48:11 0.00783245
6 *48:10 0.0123969
*RES
1 *438:io_oeb[1] *48:10 44.415 
2 *48:10 *48:11 60.93 
3 *48:11 *48:13 4.5 
4 *48:13 *48:14 378.27 
5 *48:14 io_oeb[18] 2.475 
*END

*D_NET *55 0.172322
*CONN
*P io_oeb[24] O
*I *439:io_oeb[0] O *D serv_2
*CAP
1 io_oeb[24] 0.000242542
2 *439:io_oeb[0] 0.000625883
3 *55:17 0.0223867
4 *55:16 0.0221442
5 *55:14 0.00757267
6 *55:13 0.00757267
7 *55:11 0.0399203
8 *55:10 0.0399203
9 *55:8 0.00408139
10 *55:7 0.00470727
11 *13:16 *55:11 0
12 *13:17 *55:8 0.000182063
13 *15:15 *55:8 0.022966
*RES
1 *439:io_oeb[0] *55:7 9.045 
2 *55:7 *55:8 60.93 
3 *55:8 *55:10 4.5 
4 *55:10 *55:11 312.39 
5 *55:11 *55:13 4.5 
6 *55:13 *55:14 58.23 
7 *55:14 *55:16 4.5 
8 *55:16 *55:17 173.61 
9 *55:17 io_oeb[24] 2.475 
*END

*D_NET *56 0.144479
*CONN
*P io_oeb[25] O
*I *439:io_oeb[1] O *D serv_2
*CAP
1 io_oeb[25] 0.00139394
2 *439:io_oeb[1] 0.000268189
3 *56:11 0.0536174
4 *56:10 0.055119
5 *56:7 0.00316372
6 *16:16 *56:11 0.0134761
7 *16:19 *56:10 0.0174405
*RES
1 *439:io_oeb[1] *56:7 6.345 
2 *56:7 *56:10 48.87 
3 *56:10 *56:11 477.09 
4 *56:11 io_oeb[25] 19.215 
*END

*D_NET *78 0.260052
*CONN
*P io_out[10] O
*I *437:io_out[0] O *D serv_0
*CAP
1 io_out[10] 0.00465699
2 *437:io_out[0] 0.0139994
3 *78:11 0.0590813
4 *78:10 0.0544243
5 *78:8 0.0569452
6 *78:7 0.0569452
7 *78:5 0.0139994
*RES
1 *437:io_out[0] *78:5 109.845 
2 *78:5 *78:7 4.5 
3 *78:7 *78:8 438.21 
4 *78:8 *78:10 4.5 
5 *78:10 *78:11 425.34 
6 *78:11 io_out[10] 36.945 
*END

*D_NET *79 0.273327
*CONN
*P io_out[11] O
*I *437:io_out[1] O *D serv_0
*CAP
1 io_out[11] 0.000253458
2 *437:io_out[1] 0.014765
3 *79:11 0.0585422
4 *79:10 0.0582888
5 *79:8 0.0633564
6 *79:7 0.0633564
7 *79:5 0.014765
*RES
1 *437:io_out[1] *79:5 115.245 
2 *79:5 *79:7 4.5 
3 *79:7 *79:8 487.53 
4 *79:8 *79:10 4.5 
5 *79:10 *79:11 456.57 
6 *79:11 io_out[11] 2.835 
*END

*D_NET *85 0.184084
*CONN
*P io_out[17] O
*I *438:io_out[0] O *D serv_1
*CAP
1 io_out[17] 0.00107486
2 *438:io_out[0] 0.0108064
3 *85:11 0.016058
4 *85:10 0.0149832
5 *85:8 0.0618084
6 *85:7 0.0618084
7 *85:5 0.0108064
8 *85:11 io_out[18] 0.00673881
*RES
1 *438:io_out[0] *85:5 83.745 
2 *85:5 *85:7 4.5 
3 *85:7 *85:8 476.55 
4 *85:8 *85:10 4.5 
5 *85:10 *85:11 125.91 
6 *85:11 io_out[17] 12.825 
*END

*D_NET *86 0.154706
*CONN
*P io_out[18] O
*I *438:io_out[1] O *D serv_1
*CAP
1 io_out[18] 0.00215083
2 *438:io_out[1] 0.000743741
3 *86:14 0.062576
4 *86:13 0.0604252
5 *86:11 0.0106639
6 *86:9 0.0114076
7 *85:11 io_out[18] 0.00673881
*RES
1 *438:io_out[1] *86:9 6.255 
2 *86:9 *86:11 82.44 
3 *86:11 *86:13 4.5 
4 *86:13 *86:14 465.93 
5 *86:14 io_out[18] 33.975 
*END

*D_NET *93 0.213159
*CONN
*P io_out[24] O
*I *439:io_out[0] O *D serv_2
*CAP
1 io_out[24] 0.00177706
2 *439:io_out[0] 0.000906118
3 *93:11 0.0624012
4 *93:10 0.0606242
5 *93:8 0.0188317
6 *93:7 0.0197378
7 *93:8 *94:8 0.0488808
*RES
1 *439:io_out[0] *93:7 11.385 
2 *93:7 *93:8 207.27 
3 *93:8 *93:10 4.5 
4 *93:10 *93:11 475.38 
5 *93:11 io_out[24] 13.185 
*END

*D_NET *94 0.192292
*CONN
*P io_out[25] O
*I *439:io_out[1] O *D serv_2
*CAP
1 io_out[25] 0.000323383
2 *439:io_out[1] 0.000944847
3 *94:11 0.062681
4 *94:10 0.0623576
5 *94:8 0.00807979
6 *94:7 0.00902464
7 *93:8 *94:8 0.0488808
*RES
1 *439:io_out[1] *94:7 11.565 
2 *94:7 *94:8 124.29 
3 *94:8 *94:10 4.5 
4 *94:10 *94:11 488.43 
5 *94:11 io_out[25] 3.015 
*END
