*SPEF "ieee 1481-1999"
*DESIGN "user_project_wrapper"
*DATE "11:11:11 Fri 11 11, 1111"
*VENDOR "OpenRCX"
*PROGRAM "Parallel Extraction"
*VERSION "1.0"
*DESIGN_FLOW "NAME_SCOPE LOCAL" "PIN_CAP NONE"
*DIVIDER /
*DELIMITER :
*BUS_DELIMITER []
*T_UNIT 1 NS
*C_UNIT 1 PF
*R_UNIT 1 OHM
*L_UNIT 1 HENRY

*NAME_MAP
*1 io_in[0]
*2 io_in[10]
*3 io_in[11]
*4 io_in[12]
*5 io_in[13]
*6 io_in[14]
*7 io_in[15]
*8 io_in[16]
*9 io_in[17]
*10 io_in[18]
*11 io_in[19]
*12 io_in[1]
*13 io_in[20]
*14 io_in[21]
*15 io_in[22]
*16 io_in[23]
*17 io_in[24]
*18 io_in[25]
*19 io_in[26]
*20 io_in[27]
*21 io_in[28]
*22 io_in[29]
*23 io_in[2]
*24 io_in[30]
*25 io_in[31]
*26 io_in[32]
*27 io_in[33]
*28 io_in[34]
*29 io_in[35]
*30 io_in[36]
*31 io_in[37]
*32 io_in[3]
*33 io_in[4]
*34 io_in[5]
*35 io_in[6]
*36 io_in[7]
*37 io_in[8]
*38 io_in[9]
*39 io_oeb[0]
*40 io_oeb[10]
*41 io_oeb[11]
*42 io_oeb[12]
*43 io_oeb[13]
*44 io_oeb[14]
*45 io_oeb[15]
*46 io_oeb[16]
*47 io_oeb[17]
*48 io_oeb[18]
*49 io_oeb[19]
*50 io_oeb[1]
*51 io_oeb[20]
*52 io_oeb[21]
*53 io_oeb[22]
*54 io_oeb[23]
*55 io_oeb[24]
*56 io_oeb[25]
*57 io_oeb[26]
*58 io_oeb[27]
*59 io_oeb[28]
*60 io_oeb[29]
*61 io_oeb[2]
*62 io_oeb[30]
*63 io_oeb[31]
*64 io_oeb[32]
*65 io_oeb[33]
*66 io_oeb[34]
*67 io_oeb[35]
*68 io_oeb[36]
*69 io_oeb[37]
*70 io_oeb[3]
*71 io_oeb[4]
*72 io_oeb[5]
*73 io_oeb[6]
*74 io_oeb[7]
*75 io_oeb[8]
*76 io_oeb[9]
*77 io_out[0]
*78 io_out[10]
*79 io_out[11]
*80 io_out[12]
*81 io_out[13]
*82 io_out[14]
*83 io_out[15]
*84 io_out[16]
*85 io_out[17]
*86 io_out[18]
*87 io_out[19]
*88 io_out[1]
*89 io_out[20]
*90 io_out[21]
*91 io_out[22]
*92 io_out[23]
*93 io_out[24]
*94 io_out[25]
*95 io_out[26]
*96 io_out[27]
*97 io_out[28]
*98 io_out[29]
*99 io_out[2]
*100 io_out[30]
*101 io_out[31]
*102 io_out[32]
*103 io_out[33]
*104 io_out[34]
*105 io_out[35]
*106 io_out[36]
*107 io_out[37]
*108 io_out[3]
*109 io_out[4]
*110 io_out[5]
*111 io_out[6]
*112 io_out[7]
*113 io_out[8]
*114 io_out[9]
*115 la_data_in[0]
*116 la_data_in[10]
*117 la_data_in[11]
*118 la_data_in[12]
*119 la_data_in[13]
*120 la_data_in[14]
*121 la_data_in[15]
*122 la_data_in[16]
*123 la_data_in[17]
*124 la_data_in[18]
*125 la_data_in[19]
*126 la_data_in[1]
*127 la_data_in[20]
*128 la_data_in[21]
*129 la_data_in[22]
*130 la_data_in[23]
*131 la_data_in[24]
*132 la_data_in[25]
*133 la_data_in[26]
*134 la_data_in[27]
*135 la_data_in[28]
*136 la_data_in[29]
*137 la_data_in[2]
*138 la_data_in[30]
*139 la_data_in[31]
*140 la_data_in[32]
*141 la_data_in[33]
*142 la_data_in[34]
*143 la_data_in[35]
*144 la_data_in[36]
*145 la_data_in[37]
*146 la_data_in[38]
*147 la_data_in[39]
*148 la_data_in[3]
*149 la_data_in[40]
*150 la_data_in[41]
*151 la_data_in[42]
*152 la_data_in[43]
*153 la_data_in[44]
*154 la_data_in[45]
*155 la_data_in[46]
*156 la_data_in[47]
*157 la_data_in[48]
*158 la_data_in[49]
*159 la_data_in[4]
*160 la_data_in[50]
*161 la_data_in[51]
*162 la_data_in[52]
*163 la_data_in[53]
*164 la_data_in[54]
*165 la_data_in[55]
*166 la_data_in[56]
*167 la_data_in[57]
*168 la_data_in[58]
*169 la_data_in[59]
*170 la_data_in[5]
*171 la_data_in[60]
*172 la_data_in[61]
*173 la_data_in[62]
*174 la_data_in[63]
*175 la_data_in[6]
*176 la_data_in[7]
*177 la_data_in[8]
*178 la_data_in[9]
*179 la_data_out[0]
*180 la_data_out[10]
*181 la_data_out[11]
*182 la_data_out[12]
*183 la_data_out[13]
*184 la_data_out[14]
*185 la_data_out[15]
*186 la_data_out[16]
*187 la_data_out[17]
*188 la_data_out[18]
*189 la_data_out[19]
*190 la_data_out[1]
*191 la_data_out[20]
*192 la_data_out[21]
*193 la_data_out[22]
*194 la_data_out[23]
*195 la_data_out[24]
*196 la_data_out[25]
*197 la_data_out[26]
*198 la_data_out[27]
*199 la_data_out[28]
*200 la_data_out[29]
*201 la_data_out[2]
*202 la_data_out[30]
*203 la_data_out[31]
*204 la_data_out[32]
*205 la_data_out[33]
*206 la_data_out[34]
*207 la_data_out[35]
*208 la_data_out[36]
*209 la_data_out[37]
*210 la_data_out[38]
*211 la_data_out[39]
*212 la_data_out[3]
*213 la_data_out[40]
*214 la_data_out[41]
*215 la_data_out[42]
*216 la_data_out[43]
*217 la_data_out[44]
*218 la_data_out[45]
*219 la_data_out[46]
*220 la_data_out[47]
*221 la_data_out[48]
*222 la_data_out[49]
*223 la_data_out[4]
*224 la_data_out[50]
*225 la_data_out[51]
*226 la_data_out[52]
*227 la_data_out[53]
*228 la_data_out[54]
*229 la_data_out[55]
*230 la_data_out[56]
*231 la_data_out[57]
*232 la_data_out[58]
*233 la_data_out[59]
*234 la_data_out[5]
*235 la_data_out[60]
*236 la_data_out[61]
*237 la_data_out[62]
*238 la_data_out[63]
*239 la_data_out[6]
*240 la_data_out[7]
*241 la_data_out[8]
*242 la_data_out[9]
*243 la_oenb[0]
*244 la_oenb[10]
*245 la_oenb[11]
*246 la_oenb[12]
*247 la_oenb[13]
*248 la_oenb[14]
*249 la_oenb[15]
*250 la_oenb[16]
*251 la_oenb[17]
*252 la_oenb[18]
*253 la_oenb[19]
*254 la_oenb[1]
*255 la_oenb[20]
*256 la_oenb[21]
*257 la_oenb[22]
*258 la_oenb[23]
*259 la_oenb[24]
*260 la_oenb[25]
*261 la_oenb[26]
*262 la_oenb[27]
*263 la_oenb[28]
*264 la_oenb[29]
*265 la_oenb[2]
*266 la_oenb[30]
*267 la_oenb[31]
*268 la_oenb[32]
*269 la_oenb[33]
*270 la_oenb[34]
*271 la_oenb[35]
*272 la_oenb[36]
*273 la_oenb[37]
*274 la_oenb[38]
*275 la_oenb[39]
*276 la_oenb[3]
*277 la_oenb[40]
*278 la_oenb[41]
*279 la_oenb[42]
*280 la_oenb[43]
*281 la_oenb[44]
*282 la_oenb[45]
*283 la_oenb[46]
*284 la_oenb[47]
*285 la_oenb[48]
*286 la_oenb[49]
*287 la_oenb[4]
*288 la_oenb[50]
*289 la_oenb[51]
*290 la_oenb[52]
*291 la_oenb[53]
*292 la_oenb[54]
*293 la_oenb[55]
*294 la_oenb[56]
*295 la_oenb[57]
*296 la_oenb[58]
*297 la_oenb[59]
*298 la_oenb[5]
*299 la_oenb[60]
*300 la_oenb[61]
*301 la_oenb[62]
*302 la_oenb[63]
*303 la_oenb[6]
*304 la_oenb[7]
*305 la_oenb[8]
*306 la_oenb[9]
*307 user_clock2
*308 user_irq[0]
*309 user_irq[1]
*310 user_irq[2]
*313 wb_clk_i
*314 wb_rst_i
*315 wbs_ack_o
*316 wbs_adr_i[0]
*317 wbs_adr_i[10]
*318 wbs_adr_i[11]
*319 wbs_adr_i[12]
*320 wbs_adr_i[13]
*321 wbs_adr_i[14]
*322 wbs_adr_i[15]
*323 wbs_adr_i[16]
*324 wbs_adr_i[17]
*325 wbs_adr_i[18]
*326 wbs_adr_i[19]
*327 wbs_adr_i[1]
*328 wbs_adr_i[20]
*329 wbs_adr_i[21]
*330 wbs_adr_i[22]
*331 wbs_adr_i[23]
*332 wbs_adr_i[24]
*333 wbs_adr_i[25]
*334 wbs_adr_i[26]
*335 wbs_adr_i[27]
*336 wbs_adr_i[28]
*337 wbs_adr_i[29]
*338 wbs_adr_i[2]
*339 wbs_adr_i[30]
*340 wbs_adr_i[31]
*341 wbs_adr_i[3]
*342 wbs_adr_i[4]
*343 wbs_adr_i[5]
*344 wbs_adr_i[6]
*345 wbs_adr_i[7]
*346 wbs_adr_i[8]
*347 wbs_adr_i[9]
*348 wbs_cyc_i
*349 wbs_dat_i[0]
*350 wbs_dat_i[10]
*351 wbs_dat_i[11]
*352 wbs_dat_i[12]
*353 wbs_dat_i[13]
*354 wbs_dat_i[14]
*355 wbs_dat_i[15]
*356 wbs_dat_i[16]
*357 wbs_dat_i[17]
*358 wbs_dat_i[18]
*359 wbs_dat_i[19]
*360 wbs_dat_i[1]
*361 wbs_dat_i[20]
*362 wbs_dat_i[21]
*363 wbs_dat_i[22]
*364 wbs_dat_i[23]
*365 wbs_dat_i[24]
*366 wbs_dat_i[25]
*367 wbs_dat_i[26]
*368 wbs_dat_i[27]
*369 wbs_dat_i[28]
*370 wbs_dat_i[29]
*371 wbs_dat_i[2]
*372 wbs_dat_i[30]
*373 wbs_dat_i[31]
*374 wbs_dat_i[3]
*375 wbs_dat_i[4]
*376 wbs_dat_i[5]
*377 wbs_dat_i[6]
*378 wbs_dat_i[7]
*379 wbs_dat_i[8]
*380 wbs_dat_i[9]
*381 wbs_dat_o[0]
*382 wbs_dat_o[10]
*383 wbs_dat_o[11]
*384 wbs_dat_o[12]
*385 wbs_dat_o[13]
*386 wbs_dat_o[14]
*387 wbs_dat_o[15]
*388 wbs_dat_o[16]
*389 wbs_dat_o[17]
*390 wbs_dat_o[18]
*391 wbs_dat_o[19]
*392 wbs_dat_o[1]
*393 wbs_dat_o[20]
*394 wbs_dat_o[21]
*395 wbs_dat_o[22]
*396 wbs_dat_o[23]
*397 wbs_dat_o[24]
*398 wbs_dat_o[25]
*399 wbs_dat_o[26]
*400 wbs_dat_o[27]
*401 wbs_dat_o[28]
*402 wbs_dat_o[29]
*403 wbs_dat_o[2]
*404 wbs_dat_o[30]
*405 wbs_dat_o[31]
*406 wbs_dat_o[3]
*407 wbs_dat_o[4]
*408 wbs_dat_o[5]
*409 wbs_dat_o[6]
*410 wbs_dat_o[7]
*411 wbs_dat_o[8]
*412 wbs_dat_o[9]
*413 wbs_sel_i[0]
*414 wbs_sel_i[1]
*415 wbs_sel_i[2]
*416 wbs_sel_i[3]
*417 wbs_stb_i
*418 wbs_we_i
*419 mprj

*PORTS
io_in[0] I
io_in[10] I
io_in[11] I
io_in[12] I
io_in[13] I
io_in[14] I
io_in[15] I
io_in[16] I
io_in[17] I
io_in[18] I
io_in[19] I
io_in[1] I
io_in[20] I
io_in[21] I
io_in[22] I
io_in[23] I
io_in[24] I
io_in[25] I
io_in[26] I
io_in[27] I
io_in[28] I
io_in[29] I
io_in[2] I
io_in[30] I
io_in[31] I
io_in[32] I
io_in[33] I
io_in[34] I
io_in[35] I
io_in[36] I
io_in[37] I
io_in[3] I
io_in[4] I
io_in[5] I
io_in[6] I
io_in[7] I
io_in[8] I
io_in[9] I
io_oeb[0] O
io_oeb[10] O
io_oeb[11] O
io_oeb[12] O
io_oeb[13] O
io_oeb[14] O
io_oeb[15] O
io_oeb[16] O
io_oeb[17] O
io_oeb[18] O
io_oeb[19] O
io_oeb[1] O
io_oeb[20] O
io_oeb[21] O
io_oeb[22] O
io_oeb[23] O
io_oeb[24] O
io_oeb[25] O
io_oeb[26] O
io_oeb[27] O
io_oeb[28] O
io_oeb[29] O
io_oeb[2] O
io_oeb[30] O
io_oeb[31] O
io_oeb[32] O
io_oeb[33] O
io_oeb[34] O
io_oeb[35] O
io_oeb[36] O
io_oeb[37] O
io_oeb[3] O
io_oeb[4] O
io_oeb[5] O
io_oeb[6] O
io_oeb[7] O
io_oeb[8] O
io_oeb[9] O
io_out[0] O
io_out[10] O
io_out[11] O
io_out[12] O
io_out[13] O
io_out[14] O
io_out[15] O
io_out[16] O
io_out[17] O
io_out[18] O
io_out[19] O
io_out[1] O
io_out[20] O
io_out[21] O
io_out[22] O
io_out[23] O
io_out[24] O
io_out[25] O
io_out[26] O
io_out[27] O
io_out[28] O
io_out[29] O
io_out[2] O
io_out[30] O
io_out[31] O
io_out[32] O
io_out[33] O
io_out[34] O
io_out[35] O
io_out[36] O
io_out[37] O
io_out[3] O
io_out[4] O
io_out[5] O
io_out[6] O
io_out[7] O
io_out[8] O
io_out[9] O
la_data_in[0] I
la_data_in[10] I
la_data_in[11] I
la_data_in[12] I
la_data_in[13] I
la_data_in[14] I
la_data_in[15] I
la_data_in[16] I
la_data_in[17] I
la_data_in[18] I
la_data_in[19] I
la_data_in[1] I
la_data_in[20] I
la_data_in[21] I
la_data_in[22] I
la_data_in[23] I
la_data_in[24] I
la_data_in[25] I
la_data_in[26] I
la_data_in[27] I
la_data_in[28] I
la_data_in[29] I
la_data_in[2] I
la_data_in[30] I
la_data_in[31] I
la_data_in[32] I
la_data_in[33] I
la_data_in[34] I
la_data_in[35] I
la_data_in[36] I
la_data_in[37] I
la_data_in[38] I
la_data_in[39] I
la_data_in[3] I
la_data_in[40] I
la_data_in[41] I
la_data_in[42] I
la_data_in[43] I
la_data_in[44] I
la_data_in[45] I
la_data_in[46] I
la_data_in[47] I
la_data_in[48] I
la_data_in[49] I
la_data_in[4] I
la_data_in[50] I
la_data_in[51] I
la_data_in[52] I
la_data_in[53] I
la_data_in[54] I
la_data_in[55] I
la_data_in[56] I
la_data_in[57] I
la_data_in[58] I
la_data_in[59] I
la_data_in[5] I
la_data_in[60] I
la_data_in[61] I
la_data_in[62] I
la_data_in[63] I
la_data_in[6] I
la_data_in[7] I
la_data_in[8] I
la_data_in[9] I
la_data_out[0] O
la_data_out[10] O
la_data_out[11] O
la_data_out[12] O
la_data_out[13] O
la_data_out[14] O
la_data_out[15] O
la_data_out[16] O
la_data_out[17] O
la_data_out[18] O
la_data_out[19] O
la_data_out[1] O
la_data_out[20] O
la_data_out[21] O
la_data_out[22] O
la_data_out[23] O
la_data_out[24] O
la_data_out[25] O
la_data_out[26] O
la_data_out[27] O
la_data_out[28] O
la_data_out[29] O
la_data_out[2] O
la_data_out[30] O
la_data_out[31] O
la_data_out[32] O
la_data_out[33] O
la_data_out[34] O
la_data_out[35] O
la_data_out[36] O
la_data_out[37] O
la_data_out[38] O
la_data_out[39] O
la_data_out[3] O
la_data_out[40] O
la_data_out[41] O
la_data_out[42] O
la_data_out[43] O
la_data_out[44] O
la_data_out[45] O
la_data_out[46] O
la_data_out[47] O
la_data_out[48] O
la_data_out[49] O
la_data_out[4] O
la_data_out[50] O
la_data_out[51] O
la_data_out[52] O
la_data_out[53] O
la_data_out[54] O
la_data_out[55] O
la_data_out[56] O
la_data_out[57] O
la_data_out[58] O
la_data_out[59] O
la_data_out[5] O
la_data_out[60] O
la_data_out[61] O
la_data_out[62] O
la_data_out[63] O
la_data_out[6] O
la_data_out[7] O
la_data_out[8] O
la_data_out[9] O
la_oenb[0] I
la_oenb[10] I
la_oenb[11] I
la_oenb[12] I
la_oenb[13] I
la_oenb[14] I
la_oenb[15] I
la_oenb[16] I
la_oenb[17] I
la_oenb[18] I
la_oenb[19] I
la_oenb[1] I
la_oenb[20] I
la_oenb[21] I
la_oenb[22] I
la_oenb[23] I
la_oenb[24] I
la_oenb[25] I
la_oenb[26] I
la_oenb[27] I
la_oenb[28] I
la_oenb[29] I
la_oenb[2] I
la_oenb[30] I
la_oenb[31] I
la_oenb[32] I
la_oenb[33] I
la_oenb[34] I
la_oenb[35] I
la_oenb[36] I
la_oenb[37] I
la_oenb[38] I
la_oenb[39] I
la_oenb[3] I
la_oenb[40] I
la_oenb[41] I
la_oenb[42] I
la_oenb[43] I
la_oenb[44] I
la_oenb[45] I
la_oenb[46] I
la_oenb[47] I
la_oenb[48] I
la_oenb[49] I
la_oenb[4] I
la_oenb[50] I
la_oenb[51] I
la_oenb[52] I
la_oenb[53] I
la_oenb[54] I
la_oenb[55] I
la_oenb[56] I
la_oenb[57] I
la_oenb[58] I
la_oenb[59] I
la_oenb[5] I
la_oenb[60] I
la_oenb[61] I
la_oenb[62] I
la_oenb[63] I
la_oenb[6] I
la_oenb[7] I
la_oenb[8] I
la_oenb[9] I
user_clock2 I
user_irq[0] O
user_irq[1] O
user_irq[2] O
wb_clk_i I
wb_rst_i I
wbs_ack_o O
wbs_adr_i[0] I
wbs_adr_i[10] I
wbs_adr_i[11] I
wbs_adr_i[12] I
wbs_adr_i[13] I
wbs_adr_i[14] I
wbs_adr_i[15] I
wbs_adr_i[16] I
wbs_adr_i[17] I
wbs_adr_i[18] I
wbs_adr_i[19] I
wbs_adr_i[1] I
wbs_adr_i[20] I
wbs_adr_i[21] I
wbs_adr_i[22] I
wbs_adr_i[23] I
wbs_adr_i[24] I
wbs_adr_i[25] I
wbs_adr_i[26] I
wbs_adr_i[27] I
wbs_adr_i[28] I
wbs_adr_i[29] I
wbs_adr_i[2] I
wbs_adr_i[30] I
wbs_adr_i[31] I
wbs_adr_i[3] I
wbs_adr_i[4] I
wbs_adr_i[5] I
wbs_adr_i[6] I
wbs_adr_i[7] I
wbs_adr_i[8] I
wbs_adr_i[9] I
wbs_cyc_i I
wbs_dat_i[0] I
wbs_dat_i[10] I
wbs_dat_i[11] I
wbs_dat_i[12] I
wbs_dat_i[13] I
wbs_dat_i[14] I
wbs_dat_i[15] I
wbs_dat_i[16] I
wbs_dat_i[17] I
wbs_dat_i[18] I
wbs_dat_i[19] I
wbs_dat_i[1] I
wbs_dat_i[20] I
wbs_dat_i[21] I
wbs_dat_i[22] I
wbs_dat_i[23] I
wbs_dat_i[24] I
wbs_dat_i[25] I
wbs_dat_i[26] I
wbs_dat_i[27] I
wbs_dat_i[28] I
wbs_dat_i[29] I
wbs_dat_i[2] I
wbs_dat_i[30] I
wbs_dat_i[31] I
wbs_dat_i[3] I
wbs_dat_i[4] I
wbs_dat_i[5] I
wbs_dat_i[6] I
wbs_dat_i[7] I
wbs_dat_i[8] I
wbs_dat_i[9] I
wbs_dat_o[0] O
wbs_dat_o[10] O
wbs_dat_o[11] O
wbs_dat_o[12] O
wbs_dat_o[13] O
wbs_dat_o[14] O
wbs_dat_o[15] O
wbs_dat_o[16] O
wbs_dat_o[17] O
wbs_dat_o[18] O
wbs_dat_o[19] O
wbs_dat_o[1] O
wbs_dat_o[20] O
wbs_dat_o[21] O
wbs_dat_o[22] O
wbs_dat_o[23] O
wbs_dat_o[24] O
wbs_dat_o[25] O
wbs_dat_o[26] O
wbs_dat_o[27] O
wbs_dat_o[28] O
wbs_dat_o[29] O
wbs_dat_o[2] O
wbs_dat_o[30] O
wbs_dat_o[31] O
wbs_dat_o[3] O
wbs_dat_o[4] O
wbs_dat_o[5] O
wbs_dat_o[6] O
wbs_dat_o[7] O
wbs_dat_o[8] O
wbs_dat_o[9] O
wbs_sel_i[0] I
wbs_sel_i[1] I
wbs_sel_i[2] I
wbs_sel_i[3] I
wbs_stb_i I
wbs_we_i I

*D_NET *1 0.307591
*CONN
*P io_in[0] I
*I *419:io_in[0] I *D tiny_user_project
*CAP
1 io_in[0] 0.00318708
2 *419:io_in[0] 0.000367336
3 *1:14 0.0193063
4 *1:13 0.018939
5 *1:11 0.0704754
6 *1:10 0.0736625
7 *1:11 *329:16 0.0448243
8 *1:14 *71:17 0
9 *1:14 *181:13 0
10 *1:14 *182:11 0.00412445
11 *1:14 *212:11 0.0458477
12 *1:14 *276:19 0.0179217
13 *1:14 *368:11 0.00893478
*RES
1 io_in[0] *1:10 40.995 
2 *1:10 *1:11 766.71 
3 *1:11 *1:13 4.5 
4 *1:13 *1:14 292.77 
5 *1:14 *419:io_in[0] 16.56 
*END

*D_NET *2 0.342341
*CONN
*P io_in[10] I
*I *419:io_in[10] I *D tiny_user_project
*CAP
1 io_in[10] 0.0713445
2 *419:io_in[10] 0.000713991
3 *2:8 0.0233135
4 *2:7 0.0225995
5 *2:5 0.0713445
6 *419:io_in[10] *220:10 0.000261302
7 *2:8 *37:16 0.131405
8 *2:8 *192:11 0.0176148
9 *2:8 *285:19 0.00374392
*RES
1 io_in[10] *2:5 777.645 
2 *2:5 *2:7 4.5 
3 *2:7 *2:8 322.29 
4 *2:8 *419:io_in[10] 21.06 
*END

*D_NET *3 0.416712
*CONN
*P io_in[11] I
*I *419:io_in[11] I *D tiny_user_project
*CAP
1 io_in[11] 0.000280649
2 *419:io_in[11] 0.000924285
3 *3:16 0.033954
4 *3:15 0.0330297
5 *3:13 0.07181
6 *3:11 0.0720906
7 *419:io_in[11] *419:io_in[14] 0.00277806
8 *419:io_in[11] *419:la_data_in[42] 0
9 *3:16 *75:11 0.18959
10 *3:16 *195:13 0.00114568
11 *3:16 *275:19 0.011109
*RES
1 io_in[11] *3:11 2.655 
2 *3:11 *3:13 782.91 
3 *3:13 *3:15 4.5 
4 *3:15 *3:16 458.55 
5 *3:16 *419:io_in[11] 27.09 
*END

*D_NET *4 0.310004
*CONN
*P io_in[12] I
*I *419:io_in[12] I *D tiny_user_project
*CAP
1 io_in[12] 0.000215438
2 *419:io_in[12] 0.00125114
3 *4:16 0.0385338
4 *4:15 0.0372827
5 *4:13 0.0722735
6 *4:11 0.0724889
7 *419:io_in[12] *419:la_oenb[28] 0.00364855
8 *4:16 *82:13 0.0383394
9 *4:16 *287:11 0.0459704
*RES
1 io_in[12] *4:11 2.115 
2 *4:11 *4:13 788.31 
3 *4:13 *4:15 4.5 
4 *4:15 *4:16 469.71 
5 *4:16 *419:io_in[12] 31.68 
*END

*D_NET *5 0.341358
*CONN
*P io_in[13] I
*I *419:io_in[13] I *D tiny_user_project
*CAP
1 io_in[13] 0.000145659
2 *419:io_in[13] 0.00249405
3 *5:16 0.0546755
4 *5:15 0.0521814
5 *5:13 0.0724651
6 *5:11 0.0726107
7 *5:16 *185:13 0.0626646
8 *5:16 *225:15 0.0241207
*RES
1 io_in[13] *5:11 1.575 
2 *5:11 *5:13 791.01 
3 *5:13 *5:15 4.5 
4 *5:15 *5:16 575.19 
5 *5:16 *419:io_in[13] 35.19 
*END

*D_NET *6 0.372269
*CONN
*P io_in[14] I
*I *419:io_in[14] I *D tiny_user_project
*CAP
1 io_in[14] 0.00399984
2 *419:io_in[14] 0.00126407
3 *6:12 0.0598259
4 *6:11 0.0585618
5 *6:9 0.0680066
6 *6:7 0.0720065
7 *419:io_in[14] *419:la_data_in[42] 0.000239343
8 *6:12 *135:21 0.00253687
9 *6:12 *332:19 0.10305
10 *6:12 *339:11 0
11 *419:io_in[11] *419:io_in[14] 0.00277806
*RES
1 io_in[14] *6:7 43.425 
2 *6:7 *6:9 742.68 
3 *6:9 *6:11 4.5 
4 *6:11 *6:12 653.31 
5 *6:12 *419:io_in[14] 31.23 
*END

*D_NET *7 0.238014
*CONN
*P io_in[15] I
*I *419:io_in[15] I *D tiny_user_project
*CAP
1 io_in[15] 0.00432456
2 *419:io_in[15] 0.000494317
3 *7:15 0.0114668
4 *7:14 0.0109725
5 *7:12 0.0596039
6 *7:11 0.0596039
7 *7:9 0.0407027
8 *7:7 0.0450273
9 *419:io_in[15] *122:16 0.000233137
10 *419:io_in[15] *207:12 0.000779279
11 *419:io_in[15] *357:20 1.81328e-05
12 *419:io_in[15] *379:24 0.00012434
13 *419:io_in[15] *412:13 0.00466273
14 *7:12 *100:19 0
15 *7:15 *68:12 0
*RES
1 io_in[15] *7:7 43.245 
2 *7:7 *7:9 406.44 
3 *7:9 *7:11 4.5 
4 *7:11 *7:12 649.53 
5 *7:12 *7:14 4.5 
6 *7:14 *7:15 106.65 
7 *7:15 *419:io_in[15] 28.35 
*END

*D_NET *8 0.232211
*CONN
*P io_in[16] I
*I *419:io_in[16] I *D tiny_user_project
*CAP
1 io_in[16] 0.000164983
2 *419:io_in[16] 0.000952665
3 *8:19 0.010708
4 *8:18 0.00975531
5 *8:16 0.040815
6 *8:15 0.040815
7 *8:13 0.0604841
8 *8:11 0.060649
9 *8:16 *419:wbs_dat_i[23] 0.00117812
10 *8:16 *405:7 0.000624807
11 *8:19 *14:11 0
12 *8:19 *31:16 0.00250413
13 *8:19 *69:8 0.00215429
14 *8:19 *94:8 0
15 *8:19 *347:19 0.00140525
*RES
1 io_in[16] *8:11 1.935 
2 *8:11 *8:13 603.27 
3 *8:13 *8:15 4.5 
4 *8:15 *8:16 444.33 
5 *8:16 *8:18 4.5 
6 *8:18 *8:19 119.97 
7 *8:19 *419:io_in[16] 12.105 
*END

*D_NET *9 0.179503
*CONN
*P io_in[17] I
*I *419:io_in[17] I *D tiny_user_project
*CAP
1 io_in[17] 0.000291323
2 *419:io_in[17] 0.004936
3 *9:21 0.004936
4 *9:19 0.00635539
5 *9:18 0.00635539
6 *9:16 0.0266205
7 *9:15 0.0266205
8 *9:13 0.0509709
9 *9:11 0.0512622
10 *419:io_in[17] *419:la_data_in[10] 0.00071029
11 *9:19 *223:16 0.000444974
*RES
1 io_in[17] *9:11 3.015 
2 *9:11 *9:13 508.77 
3 *9:13 *9:15 4.5 
4 *9:15 *9:16 290.43 
5 *9:16 *9:18 4.5 
6 *9:18 *9:19 62.19 
7 *9:19 *9:21 4.5 
8 *9:21 *419:io_in[17] 53.505 
*END

*D_NET *10 0.171311
*CONN
*P io_in[18] I
*I *419:io_in[18] I *D tiny_user_project
*CAP
1 io_in[18] 0.000104982
2 *419:io_in[18] 6.47116e-05
3 *10:19 0.0121723
4 *10:18 0.0121076
5 *10:16 0.0283396
6 *10:15 0.0283396
7 *10:13 0.0442008
8 *10:11 0.0443058
9 *419:io_in[18] *419:wbs_adr_i[0] 0.000108797
10 *419:io_in[18] *357:20 0.000199461
11 *419:io_in[18] *379:24 0.00136774
12 *10:16 *37:13 0
*RES
1 io_in[18] *10:11 1.395 
2 *10:11 *10:13 441.27 
3 *10:13 *10:15 4.5 
4 *10:15 *10:16 307.53 
5 *10:16 *10:18 4.5 
6 *10:18 *10:19 117.45 
7 *10:19 *419:io_in[18] 11.61 
*END

*D_NET *11 0.181748
*CONN
*P io_in[19] I
*I *419:io_in[19] I *D tiny_user_project
*CAP
1 io_in[19] 0.000224243
2 *419:io_in[19] 0.00176846
3 *11:19 0.0506
4 *11:18 0.0488315
5 *11:16 0.01062
6 *11:15 0.01062
7 *11:13 0.0263605
8 *11:11 0.0265847
9 *11:19 *53:8 0
10 *11:19 *148:19 0
11 *11:19 *340:19 0.000662858
12 *11:19 *365:11 0.00547548
*RES
1 io_in[19] *11:11 2.475 
2 *11:11 *11:13 263.07 
3 *11:13 *11:15 4.5 
4 *11:15 *11:16 114.93 
5 *11:16 *11:18 4.5 
6 *11:18 *11:19 505.53 
7 *11:19 *419:io_in[19] 20.205 
*END

*D_NET *12 0.675016
*CONN
*P io_in[1] I
*I *419:io_in[1] I *D tiny_user_project
*CAP
1 io_in[1] 0.000637361
2 *419:io_in[1] 0.000367501
3 *12:17 0.0029684
4 *12:16 0.00268357
5 *12:11 0.037634
6 *12:10 0.0375513
7 *12:8 0.0268762
8 *12:7 0.0275135
9 *419:io_in[1] *273:22 0.0011093
10 *419:io_in[1] *332:29 0
11 *419:io_in[1] *348:16 2.48679e-05
12 *419:io_in[1] *379:24 0.00012434
13 *12:8 io_oeb[2] 0
14 *12:8 *32:10 0
15 *12:8 *34:8 0.0996128
16 *12:8 *70:17 0.00122752
17 *12:11 *50:13 0.00230028
18 *12:11 *137:24 0.0062014
19 *12:11 *163:16 0.334411
20 *12:11 *257:18 0.0125789
21 *12:11 *295:14 0
22 *12:11 *342:16 0.0598693
23 *12:11 *378:18 0
24 *12:16 *224:12 0.000920636
25 *12:17 *122:27 0.0119987
26 *12:17 *342:16 0
27 *12:17 *378:12 0
28 *12:17 *378:18 0.00553289
29 *12:17 *385:13 0.00287224
*RES
1 io_in[1] *12:7 11.025 
2 *12:7 *12:8 335.25 
3 *12:8 *12:10 4.5 
4 *12:10 *12:11 706.23 
5 *12:11 *12:16 10.35 
6 *12:16 *12:17 46.17 
7 *12:17 *419:io_in[1] 27.54 
*END

*D_NET *13 0.12634
*CONN
*P io_in[20] I
*I *419:io_in[20] I *D tiny_user_project
*CAP
1 io_in[20] 0.00433622
2 *419:io_in[20] 6.60414e-05
3 *13:15 0.00830889
4 *13:14 0.00824285
5 *13:12 0.00627211
6 *13:11 0.00627211
7 *13:9 0.0436743
8 *13:7 0.0480105
9 *419:io_in[20] *419:wbs_dat_i[7] 2.17594e-05
10 *419:io_in[20] *164:42 0.00012693
11 *419:io_in[20] *379:24 0.000870377
12 *13:15 *419:wbs_dat_i[7] 0.000138095
*RES
1 io_in[20] *13:7 43.245 
2 *13:7 *13:9 436.14 
3 *13:9 *13:11 4.5 
4 *13:11 *13:12 67.59 
5 *13:12 *13:14 4.5 
6 *13:14 *13:15 79.65 
7 *13:15 *419:io_in[20] 10.89 
*END

*D_NET *14 0.470537
*CONN
*P io_in[21] I
*I *419:io_in[21] I *D tiny_user_project
*CAP
1 io_in[21] 0.000688716
2 *419:io_in[21] 0.000156208
3 *14:14 0.000857278
4 *14:13 0.000701071
5 *14:11 0.065819
6 *14:10 0.065819
7 *14:8 0.00446313
8 *14:7 0.00515185
9 *419:io_in[21] *144:22 0.000414482
10 *14:8 *91:11 0.0604912
11 *14:11 *16:19 0.074817
12 *14:11 *31:16 0.11643
13 *14:14 *85:13 0.0373641
14 *14:14 *109:13 0.0373641
15 *8:19 *14:11 0
*RES
1 io_in[21] *14:7 10.665 
2 *14:7 *14:8 87.57 
3 *14:8 *14:10 4.5 
4 *14:10 *14:11 772.11 
5 *14:11 *14:13 4.5 
6 *14:13 *14:14 54.09 
7 *14:14 *419:io_in[21] 15.4761 
*END

*D_NET *15 0.161079
*CONN
*P io_in[22] I
*I *419:io_in[22] I *D tiny_user_project
*CAP
1 io_in[22] 0.000290594
2 *419:io_in[22] 6.4298e-05
3 *15:19 0.0039018
4 *15:16 0.0215306
5 *15:15 0.0176931
6 *15:13 0.0517468
7 *15:11 0.0520374
8 *419:io_in[22] *231:19 0.000683868
9 *419:io_in[22] *252:22 0.000683868
10 *15:19 *257:17 0.000171852
11 *15:19 *367:19 0.00337566
12 *15:19 *402:16 0.00889948
*RES
1 io_in[22] *15:11 3.015 
2 *15:11 *15:13 516.87 
3 *15:13 *15:15 4.5 
4 *15:15 *15:16 191.97 
5 *15:16 *15:19 47.43 
6 *15:19 *419:io_in[22] 10.395 
*END

*D_NET *16 0.241056
*CONN
*P io_in[23] I
*I *419:io_in[23] I *D tiny_user_project
*CAP
1 io_in[23] 0.000104982
2 *419:io_in[23] 0.000685609
3 *16:19 0.00725734
4 *16:18 0.00657173
5 *16:16 0.0281148
6 *16:15 0.0281148
7 *16:13 0.0476426
8 *16:11 0.0477475
9 *14:11 *16:19 0.074817
*RES
1 io_in[23] *16:11 1.395 
2 *16:11 *16:13 476.37 
3 *16:13 *16:15 4.5 
4 *16:15 *16:16 302.67 
5 *16:16 *16:18 4.5 
6 *16:18 *16:19 109.71 
7 *16:19 *419:io_in[23] 11.025 
*END

*D_NET *17 0.347471
*CONN
*P io_in[24] I
*I *419:io_in[24] I *D tiny_user_project
*CAP
1 io_in[24] 0.0070773
2 *419:io_in[24] 0.00105868
3 *17:11 0.0174895
4 *17:10 0.0164308
5 *17:8 0.0773942
6 *17:7 0.0773942
7 *17:5 0.0070773
8 *17:11 *101:13 0.130121
9 *17:11 *233:16 0
10 *17:11 *326:16 0.0134286
*RES
1 io_in[24] *17:5 76.365 
2 *17:5 *17:7 4.5 
3 *17:7 *17:8 772.47 
4 *17:8 *17:10 4.5 
5 *17:10 *17:11 285.57 
6 *17:11 *419:io_in[24] 22.8561 
*END

*D_NET *18 0.22915
*CONN
*P io_in[25] I
*I *419:io_in[25] I *D tiny_user_project
*CAP
1 io_in[25] 0.000237175
2 *419:io_in[25] 0.000736394
3 *18:19 0.00563232
4 *18:18 0.00489592
5 *18:16 0.0684015
6 *18:15 0.0684015
7 *18:13 0.012771
8 *18:11 0.0130082
9 *419:io_in[25] *419:la_oenb[16] 0
10 *419:io_in[25] *47:18 6.21429e-05
11 *419:io_in[25] *85:12 0
12 *419:io_in[25] *250:19 0
13 *18:16 *318:11 0
14 *18:16 *373:19 0.00390043
15 *18:16 *385:16 0
16 *18:16 *404:13 0
17 *18:16 *412:22 0
18 *18:19 *70:14 0.0216971
19 *18:19 *324:10 0.0266705
20 *18:19 *332:16 0.00273547
21 *18:19 *363:12 0
*RES
1 io_in[25] *18:11 2.295 
2 *18:11 *18:13 138.51 
3 *18:13 *18:15 4.5 
4 *18:15 *18:16 699.75 
5 *18:16 *18:18 4.5 
6 *18:18 *18:19 80.91 
7 *18:19 *419:io_in[25] 20.3361 
*END

*D_NET *19 0.12923
*CONN
*P io_in[26] I
*I *419:io_in[26] I *D tiny_user_project
*CAP
1 io_in[26] 0.00010158
2 *419:io_in[26] 0.00356618
3 *19:16 0.0489607
4 *19:15 0.0453946
5 *19:13 0.0150398
6 *19:11 0.0151414
7 *419:io_in[26] *419:wbs_stb_i 0.000187805
8 *19:16 *112:13 0
9 *19:16 *227:13 0.000837779
10 *19:16 *359:11 0
*RES
1 io_in[26] *19:11 1.215 
2 *19:11 *19:13 162.81 
3 *19:13 *19:15 4.5 
4 *19:15 *19:16 456.39 
5 *19:16 *419:io_in[26] 45.63 
*END

*D_NET *20 0.125269
*CONN
*P io_in[27] I
*I *419:io_in[27] I *D tiny_user_project
*CAP
1 io_in[27] 0.00459537
2 *419:io_in[27] 9.45207e-05
3 *20:19 0.0163755
4 *20:18 0.016281
5 *20:16 0.0416634
6 *20:15 0.0462587
*RES
1 io_in[27] *20:15 48.645 
2 *20:15 *20:16 415.71 
3 *20:16 *20:18 4.5 
4 *20:18 *20:19 150.93 
5 *20:19 *419:io_in[27] 9.81 
*END

*D_NET *21 0.104878
*CONN
*P io_in[28] I
*I *419:io_in[28] I *D tiny_user_project
*CAP
1 io_in[28] 0.000167681
2 *419:io_in[28] 0.000142241
3 *21:19 0.0127726
4 *21:18 0.0126303
5 *21:16 0.0330194
6 *21:15 0.0330194
7 *21:13 0.00647933
8 *21:11 0.00664701
*RES
1 io_in[28] *21:11 1.755 
2 *21:11 *21:13 62.91 
3 *21:13 *21:15 4.5 
4 *21:15 *21:16 329.49 
5 *21:16 *21:18 4.5 
6 *21:18 *21:19 129.33 
7 *21:19 *419:io_in[28] 10.62 
*END

*D_NET *22 0.0967218
*CONN
*P io_in[29] I
*I *419:io_in[29] I *D tiny_user_project
*CAP
1 io_in[29] 0.0064054
2 *419:io_in[29] 0.000230983
3 *22:11 0.0124425
4 *22:10 0.0122115
5 *22:8 0.029513
6 *22:7 0.029513
7 *22:5 0.0064054
*RES
1 io_in[29] *22:5 68.265 
2 *22:5 *22:7 4.5 
3 *22:7 *22:8 294.39 
4 *22:8 *22:10 4.5 
5 *22:10 *22:11 123.93 
6 *22:11 *419:io_in[29] 11.7 
*END

*D_NET *23 0.327858
*CONN
*P io_in[2] I
*I *419:io_in[2] I *D tiny_user_project
*CAP
1 io_in[2] 0.000239227
2 *419:io_in[2] 0.000266489
3 *23:11 0.0467805
4 *23:10 0.046514
5 *23:8 0.0169874
6 *23:7 0.0172266
7 *419:io_in[2] *143:8 0.000880737
8 *419:io_in[2] *231:19 0.00264222
9 *419:io_in[2] *384:10 0.00190265
10 *23:8 *40:8 0.0468297
11 *23:8 *44:16 0.0338794
12 *23:11 *76:7 0
13 *23:11 *157:16 0
14 *23:11 *257:12 0.113709
*RES
1 io_in[2] *23:7 6.525 
2 *23:7 *23:8 261.45 
3 *23:8 *23:10 4.5 
4 *23:10 *23:11 572.67 
5 *23:11 *419:io_in[2] 15.615 
*END

*D_NET *24 0.339598
*CONN
*P io_in[30] I
*I *419:io_in[30] I *D tiny_user_project
*CAP
1 io_in[30] 0.000237175
2 *419:io_in[30] 0.000363457
3 *24:19 0.0165729
4 *24:18 0.0162095
5 *24:16 0.0355151
6 *24:15 0.0355151
7 *24:13 0.00464714
8 *24:11 0.00488431
9 *419:io_in[30] *79:12 0.000252957
10 *24:16 *327:13 0
11 *24:19 *65:11 0.191274
12 *24:19 *83:13 0.0341263
13 *24:19 *96:13 0
*RES
1 io_in[30] *24:11 2.295 
2 *24:11 *24:13 49.41 
3 *24:13 *24:15 4.5 
4 *24:15 *24:16 354.15 
5 *24:16 *24:18 4.5 
6 *24:18 *24:19 276.93 
7 *24:19 *419:io_in[30] 17.6361 
*END

*D_NET *25 0.07924
*CONN
*P io_in[31] I
*I *419:io_in[31] I *D tiny_user_project
*CAP
1 io_in[31] 0.00165081
2 *419:io_in[31] 4.46606e-05
3 *25:11 0.0167065
4 *25:10 0.0166619
5 *25:8 0.01977
6 *25:7 0.0214208
7 *419:io_in[31] *419:la_oenb[39] 0.000187842
8 *25:11 *419:la_oenb[39] 0.00279756
*RES
1 io_in[31] *25:7 21.465 
2 *25:7 *25:8 197.55 
3 *25:8 *25:10 4.5 
4 *25:10 *25:11 175.23 
5 *25:11 *419:io_in[31] 9.81 
*END

*D_NET *26 0.389896
*CONN
*P io_in[32] I
*I *419:io_in[32] I *D tiny_user_project
*CAP
1 io_in[32] 0.000310538
2 *419:io_in[32] 0.00139566
3 *26:19 0.00628166
4 *26:18 0.004886
5 *26:16 0.0228547
6 *26:15 0.0228547
7 *26:13 0.00704311
8 *26:11 0.00735365
9 *419:io_in[32] *283:11 0.000669763
10 *26:19 *419:wbs_adr_i[12] 0.00254896
11 *26:19 *47:19 0.102145
12 *26:19 *93:13 0.177867
13 *26:19 *105:13 0.0324731
14 *26:19 *338:16 0.00121231
*RES
1 io_in[32] *26:11 2.835 
2 *26:11 *26:13 73.71 
3 *26:13 *26:15 4.5 
4 *26:15 *26:16 227.25 
5 *26:16 *26:18 4.5 
6 *26:18 *26:19 292.59 
7 *26:19 *419:io_in[32] 28.4361 
*END

*D_NET *27 0.0655605
*CONN
*P io_in[33] I
*I *419:io_in[33] I *D tiny_user_project
*CAP
1 io_in[33] 0.00205037
2 *419:io_in[33] 4.46606e-05
3 *27:19 0.0164315
4 *27:18 0.0163869
5 *27:16 0.0124326
6 *27:15 0.014483
7 *419:io_in[33] *419:la_oenb[47] 0.000187842
8 *27:19 *419:la_oenb[47] 0.0035436
*RES
1 io_in[33] *27:15 25.965 
2 *27:15 *27:16 124.11 
3 *27:16 *27:18 4.5 
4 *27:18 *27:19 172.53 
5 *27:19 *419:io_in[33] 9.81 
*END

*D_NET *28 0.0658777
*CONN
*P io_in[34] I
*I *419:io_in[34] I *D tiny_user_project
*CAP
1 io_in[34] 0.00751545
2 *419:io_in[34] 0.000107104
3 *28:11 0.00907379
4 *28:10 0.00896669
5 *28:8 0.0106228
6 *28:7 0.0106228
7 *28:5 0.00751545
8 *419:io_in[34] *419:la_data_in[27] 3.52204e-05
9 *28:11 *134:22 0.0114184
*RES
1 io_in[34] *28:5 79.065 
2 *28:5 *28:7 4.5 
3 *28:7 *28:8 105.93 
4 *28:8 *28:10 4.5 
5 *28:10 *28:11 113.13 
6 *28:11 *419:io_in[34] 10.26 
*END

*D_NET *29 0.321237
*CONN
*P io_in[35] I
*I *419:io_in[35] I *D tiny_user_project
*CAP
1 io_in[35] 0.00237727
2 *419:io_in[35] 0.00115936
3 *29:19 0.0231097
4 *29:18 0.0219503
5 *29:16 0.0220389
6 *29:15 0.0244162
7 *419:io_in[35] *119:16 1.39882e-05
8 *419:io_in[35] *379:24 0.00012434
9 *29:16 *314:5 0
10 *29:19 *64:13 0.225599
11 *29:19 *110:13 0.000447577
12 *29:19 *111:16 0
*RES
1 io_in[35] *29:15 29.205 
2 *29:15 *29:16 220.05 
3 *29:16 *29:18 4.5 
4 *29:18 *29:19 340.65 
5 *29:19 *419:io_in[35] 23.76 
*END

*D_NET *30 0.265605
*CONN
*P io_in[36] I
*I *419:io_in[36] I *D tiny_user_project
*CAP
1 io_in[36] 0.00010158
2 *419:io_in[36] 0.00104584
3 *30:16 0.0139528
4 *30:15 0.0129069
5 *30:13 0.0383619
6 *30:11 0.0384635
7 *419:io_in[36] *419:wbs_dat_i[0] 0.000418092
8 *30:13 *227:16 0
9 *30:13 *272:16 0
10 *30:13 *377:16 0
11 *30:16 *234:8 0.0897927
12 *30:16 *298:13 0.00840847
13 *30:16 *362:11 0.0250209
14 *30:16 *374:19 0.0371323
*RES
1 io_in[36] *30:11 1.215 
2 *30:11 *30:13 396.81 
3 *30:13 *30:15 4.5 
4 *30:15 *30:16 254.07 
5 *30:16 *419:io_in[36] 16.605 
*END

*D_NET *31 0.374794
*CONN
*P io_in[37] I
*I *419:io_in[37] I *D tiny_user_project
*CAP
1 io_in[37] 0.000310538
2 *419:io_in[37] 0.000642545
3 *31:16 0.0127803
4 *31:15 0.0121378
5 *31:13 0.0376693
6 *31:11 0.0379798
7 *419:io_in[37] *308:5 0.000225327
8 *31:13 *150:16 0